train::O=c1c2ccccc2oc2cc(NCCCn3ccnc3)ccc12__gen0000
     RDKit          3D

 41 44  0  0  0  0  0  0  0  0999 V2000
    1.1232   -1.1150   -3.8799 O   0  0  0  0  0  0  0  0  0  0  0  0
    1.1361   -1.4056   -2.6933 C   0  0  0  0  0  0  0  0  0  1  0  0
    1.0420   -0.4139   -1.6200 C   0  0  0  0  0  0  0  0  0  2  0  0
    1.0628   -0.8256   -0.2768 C   0  0  0  0  0  0  0  0  0  3  0  0
    0.9500    0.1041    0.7345 C   0  0  0  0  0  0  0  0  0  4  0  0
    0.9624   -0.2271    1.7725 H   0  0  0  0  0  0  0  0  0 29  0  0
    0.7932    1.4730    0.4522 C   0  0  0  0  0  0  0  0  0  5  0  0
    0.7042    2.3509    1.4955 N   0  0  0  0  0  0  0  0  0  6  0  0
    0.4979    1.8950    2.3812 H   0  0  0  0  0  0  0  0  0  7  0  0
    0.1934    3.6905    1.3653 C   0  0  0  0  0  0  0  0  0  8  0  0
    0.2786    4.1684    2.3346 H   0  0  0  0  0  0  0  0  0  9  0  0
   -1.2634    3.7943    0.8879 C   0  0  0  0  0  0  0  0  0 10  0  0
   -1.3698    3.3113   -0.0903 H   0  0  0  0  0  0  0  0  0 11  0  0
   -1.5237    4.8575    0.7585 H   0  0  0  0  0  0  0  0  0 12  0  0
   -2.2872    3.1700    1.8543 C   0  0  0  0  0  0  0  0  0 13  0  0
   -2.1779    1.7563    1.9508 N   0  0  0  0  0  0  0  0  0 14  0  0
   -1.7623    1.0142    3.0002 C   0  0  0  0  0  0  0  0  0 15  0  0
   -1.5403    1.4510    3.9604 H   0  0  0  0  0  0  0  0  0 21  0  0
   -1.7188   -0.2527    2.7344 N   0  0  0  0  0  0  0  0  0 16  0  0
   -2.0984   -0.3753    1.4200 C   0  0  0  0  0  0  0  0  0 17  0  0
   -2.1463   -1.3302    0.9581 H   0  0  0  0  0  0  0  0  0 20  0  0
   -2.3840    0.8659    0.9274 C   0  0  0  0  0  0  0  0  0 18  0  0
   -2.7263    1.1703   -0.0504 H   0  0  0  0  0  0  0  0  0 19  0  0
   -2.1355    3.5919    2.8575 H   0  0  0  0  0  0  0  0  0 22  0  0
   -3.2969    3.4481    1.5350 H   0  0  0  0  0  0  0  0  0 23  0  0
    0.8350    4.2334    0.6633 H   0  0  0  0  0  0  0  0  0 24  0  0
    0.7864    1.8727   -0.8914 C   0  0  0  0  0  0  0  0  0 25  0  0
    0.7075    2.9186   -1.1501 H   0  0  0  0  0  0  0  0  0 28  0  0
    0.9106    0.9454   -1.8989 C   0  0  0  0  0  0  0  0  0 26  0  0
    0.8963    1.2549   -2.9321 H   0  0  0  0  0  0  0  0  0 27  0  0
    1.1784   -2.1215    0.0912 O   0  0  0  0  0  0  0  0  0 30  0  0
    1.2899   -3.0819   -0.8605 C   0  0  0  0  0  0  0  0  0 31  0  0
    1.3925   -4.4063   -0.4159 C   0  0  0  0  0  0  0  0  0 32  0  0
    1.3913   -4.5906    0.6443 H   0  0  0  0  0  0  0  0  0 40  0  0
    1.5125   -5.4257   -1.3480 C   0  0  0  0  0  0  0  0  0 33  0  0
    1.6014   -6.4445   -0.9941 H   0  0  0  0  0  0  0  0  0 39  0  0
    1.5136   -5.1424   -2.7056 C   0  0  0  0  0  0  0  0  0 34  0  0
    1.6065   -5.9435   -3.4195 H   0  0  0  0  0  0  0  0  0 38  0  0
    1.4009   -3.8465   -3.1449 C   0  0  0  0  0  0  0  0  0 35  0  0
    1.3905   -3.5885   -4.1781 H   0  0  0  0  0  0  0  0  0 37  0  0
    1.2737   -2.8011   -2.2293 C   0  0  0  0  0  0  0  0  0 36  0  0
  1  2  2  0
  2  3  4  0
  3  4  4  0
  4  5  4  0
  5  6  1  0
  5  7  4  0
  7  8  1  0
  8  9  1  0
  8 10  1  0
 10 11  1  0
 10 12  1  0
 12 13  1  0
 12 14  1  0
 12 15  1  0
 15 16  1  0
 16 17  4  0
 17 18  1  0
 17 19  4  0
 19 20  4  0
 20 21  1  0
 20 22  4  0
 22 23  1  0
 15 24  1  0
 15 25  1  0
 10 26  1  0
  7 27  4  0
 27 28  1  0
 27 29  4  0
 29 30  1  0
  4 31  4  0
 31 32  4  0
 32 33  4  0
 33 34  1  0
 33 35  4  0
 35 36  1  0
 35 37  4  0
 37 38  1  0
 37 39  4  0
 39 40  1  0
 39 41  4  0
 41  2  4  0
 29  3  4  0
 41 32  4  0
 22 16  4  0
M  END
>  <sample_id>  (1)
train::O=c1c2ccccc2oc2cc(NCCCn3ccnc3)ccc12__gen0000

>  <partition>  (1)
BAT_EXTERNAL_CONFIRM

>  <method>  (1)
BA_seed193

>  <candidate>  (1)
primary

$$$$
train::O=c1c2ccccc2oc2cc(NCCCn3ccnc3)ccc12__gen0001
     RDKit          3D

 41 44  0  0  0  0  0  0  0  0999 V2000
   -1.4075   -2.6850   -3.0880 O   0  0  0  0  0  0  0  0  0  0  0  0
   -0.4891   -2.4752   -2.3092 C   0  0  0  0  0  0  0  0  0  1  0  0
   -0.2305   -1.1624   -1.7011 C   0  0  0  0  0  0  0  0  0  2  0  0
    0.8236   -0.9828   -0.7888 C   0  0  0  0  0  0  0  0  0  3  0  0
    1.0761    0.2497   -0.2094 C   0  0  0  0  0  0  0  0  0  4  0  0
    1.9022    0.3226    0.4764 H   0  0  0  0  0  0  0  0  0 29  0  0
    0.2624    1.3488   -0.5153 C   0  0  0  0  0  0  0  0  0  5  0  0
    0.4964    2.5943   -0.0124 N   0  0  0  0  0  0  0  0  0  6  0  0
   -0.2112    3.2809   -0.2376 H   0  0  0  0  0  0  0  0  0  7  0  0
    1.3054    2.8662    1.1368 C   0  0  0  0  0  0  0  0  0  8  0  0
    2.3094    2.4403    0.9700 H   0  0  0  0  0  0  0  0  0  9  0  0
    0.7445    2.3265    2.4522 C   0  0  0  0  0  0  0  0  0 10  0  0
    0.4637    1.2822    2.3173 H   0  0  0  0  0  0  0  0  0 11  0  0
    1.5282    2.3574    3.2218 H   0  0  0  0  0  0  0  0  0 12  0  0
   -0.4681    3.1109    2.9682 C   0  0  0  0  0  0  0  0  0 13  0  0
   -1.5886    3.0228    2.0672 N   0  0  0  0  0  0  0  0  0 14  0  0
   -2.0824    4.0083    1.2763 C   0  0  0  0  0  0  0  0  0 15  0  0
   -1.6986    5.0120    1.2896 H   0  0  0  0  0  0  0  0  0 21  0  0
   -3.0674    3.5992    0.5301 N   0  0  0  0  0  0  0  0  0 16  0  0
   -3.2271    2.2782    0.8380 C   0  0  0  0  0  0  0  0  0 17  0  0
   -3.9727    1.6870    0.3537 H   0  0  0  0  0  0  0  0  0 20  0  0
   -2.3064    1.9027    1.7752 C   0  0  0  0  0  0  0  0  0 18  0  0
   -2.1492    0.9722    2.2741 H   0  0  0  0  0  0  0  0  0 19  0  0
   -0.1986    4.1704    3.0904 H   0  0  0  0  0  0  0  0  0 22  0  0
   -0.7605    2.7103    3.9459 H   0  0  0  0  0  0  0  0  0 23  0  0
    1.4336    3.9515    1.2002 H   0  0  0  0  0  0  0  0  0 24  0  0
   -0.7985    1.1685   -1.4105 C   0  0  0  0  0  0  0  0  0 25  0  0
   -1.4440    1.9997   -1.6472 H   0  0  0  0  0  0  0  0  0 28  0  0
   -1.0376   -0.0551   -1.9886 C   0  0  0  0  0  0  0  0  0 26  0  0
   -1.8589   -0.1994   -2.6744 H   0  0  0  0  0  0  0  0  0 27  0  0
    1.6703   -1.9957   -0.4424 O   0  0  0  0  0  0  0  0  0 30  0  0
    1.4746   -3.2309   -0.9799 C   0  0  0  0  0  0  0  0  0 31  0  0
    2.3852   -4.2221   -0.5868 C   0  0  0  0  0  0  0  0  0 32  0  0
    3.1597   -3.9750    0.1102 H   0  0  0  0  0  0  0  0  0 40  0  0
    2.2532   -5.4977   -1.1057 C   0  0  0  0  0  0  0  0  0 33  0  0
    2.9449   -6.2678   -0.7957 H   0  0  0  0  0  0  0  0  0 39  0  0
    1.2473   -5.7889   -2.0139 C   0  0  0  0  0  0  0  0  0 34  0  0
    1.1494   -6.7916   -2.4064 H   0  0  0  0  0  0  0  0  0 38  0  0
    0.3545   -4.8127   -2.3972 C   0  0  0  0  0  0  0  0  0 35  0  0
   -0.4426   -5.0097   -3.0928 H   0  0  0  0  0  0  0  0  0 37  0  0
    0.4549   -3.5109   -1.8904 C   0  0  0  0  0  0  0  0  0 36  0  0
  1  2  2  0
  2  3  4  0
  3  4  4  0
  4  5  4  0
  5  6  1  0
  5  7  4  0
  7  8  1  0
  8  9  1  0
  8 10  1  0
 10 11  1  0
 10 12  1  0
 12 13  1  0
 12 14  1  0
 12 15  1  0
 15 16  1  0
 16 17  4  0
 17 18  1  0
 17 19  4  0
 19 20  4  0
 20 21  1  0
 20 22  4  0
 22 23  1  0
 15 24  1  0
 15 25  1  0
 10 26  1  0
  7 27  4  0
 27 28  1  0
 27 29  4  0
 29 30  1  0
  4 31  4  0
 31 32  4  0
 32 33  4  0
 33 34  1  0
 33 35  4  0
 35 36  1  0
 35 37  4  0
 37 38  1  0
 37 39  4  0
 39 40  1  0
 39 41  4  0
 41  2  4  0
 29  3  4  0
 41 32  4  0
 22 16  4  0
M  END
>  <sample_id>  (2)
train::O=c1c2ccccc2oc2cc(NCCCn3ccnc3)ccc12__gen0001

>  <partition>  (2)
BAT_EXTERNAL_CONFIRM

>  <method>  (2)
BA_seed193

>  <candidate>  (2)
primary

$$$$
train::O=c1c2ccccc2oc2cc(NCCCn3ccnc3)ccc12__gen0002
     RDKit          3D

 41 44  0  0  0  0  0  0  0  0999 V2000
   -3.1995   -1.7048   -2.1900 O   0  0  0  0  0  0  0  0  0  0  0  0
   -2.8714   -1.1127   -1.1685 C   0  0  0  0  0  0  0  0  0  1  0  0
   -1.6671   -0.2683   -1.0816 C   0  0  0  0  0  0  0  0  0  2  0  0
   -1.3219    0.3612    0.1156 C   0  0  0  0  0  0  0  0  0  3  0  0
   -0.1808    1.1441    0.1961 C   0  0  0  0  0  0  0  0  0  4  0  0
    0.0495    1.6286    1.1304 H   0  0  0  0  0  0  0  0  0 29  0  0
    0.6788    1.2840   -0.8977 C   0  0  0  0  0  0  0  0  0  5  0  0
    1.7759    2.0990   -0.7820 N   0  0  0  0  0  0  0  0  0  6  0  0
    1.9611    2.3376    0.1831 H   0  0  0  0  0  0  0  0  0  7  0  0
    2.8970    2.0446   -1.6688 C   0  0  0  0  0  0  0  0  0  8  0  0
    3.5747    2.8414   -1.3662 H   0  0  0  0  0  0  0  0  0  9  0  0
    3.6574    0.7035   -1.7076 C   0  0  0  0  0  0  0  0  0 10  0  0
    2.9664   -0.1003   -1.9668 H   0  0  0  0  0  0  0  0  0 11  0  0
    4.4339    0.7664   -2.4765 H   0  0  0  0  0  0  0  0  0 12  0  0
    4.3439    0.3478   -0.3853 C   0  0  0  0  0  0  0  0  0 13  0  0
    3.3896    0.0443    0.6573 N   0  0  0  0  0  0  0  0  0 14  0  0
    3.1280    0.7700    1.7804 C   0  0  0  0  0  0  0  0  0 15  0  0
    3.6807    1.6551    2.0334 H   0  0  0  0  0  0  0  0  0 21  0  0
    2.1748    0.2539    2.4893 N   0  0  0  0  0  0  0  0  0 16  0  0
    1.7873   -0.8638    1.8286 C   0  0  0  0  0  0  0  0  0 17  0  0
    0.9831   -1.4919    2.1845 H   0  0  0  0  0  0  0  0  0 20  0  0
    2.5162   -1.0075    0.6785 C   0  0  0  0  0  0  0  0  0 18  0  0
    2.4970   -1.7549   -0.0888 H   0  0  0  0  0  0  0  0  0 19  0  0
    4.9604    1.1889   -0.0455 H   0  0  0  0  0  0  0  0  0 22  0  0
    4.9767   -0.5309   -0.5342 H   0  0  0  0  0  0  0  0  0 23  0  0
    2.5580    2.2661   -2.6861 H   0  0  0  0  0  0  0  0  0 24  0  0
    0.3354    0.6387   -2.0960 C   0  0  0  0  0  0  0  0  0 25  0  0
    0.9462    0.7397   -2.9840 H   0  0  0  0  0  0  0  0  0 28  0  0
   -0.8163   -0.1219   -2.1811 C   0  0  0  0  0  0  0  0  0 26  0  0
   -1.0811   -0.6133   -3.1001 H   0  0  0  0  0  0  0  0  0 27  0  0
   -2.0834    0.2762    1.2355 O   0  0  0  0  0  0  0  0  0 30  0  0
   -3.2136   -0.4844    1.2193 C   0  0  0  0  0  0  0  0  0 31  0  0
   -3.9337   -0.5696    2.4089 C   0  0  0  0  0  0  0  0  0 32  0  0
   -3.5709   -0.0237    3.2650 H   0  0  0  0  0  0  0  0  0 40  0  0
   -5.0943   -1.3001    2.4480 C   0  0  0  0  0  0  0  0  0 33  0  0
   -5.6550   -1.3623    3.3688 H   0  0  0  0  0  0  0  0  0 39  0  0
   -5.5343   -1.9838    1.3232 C   0  0  0  0  0  0  0  0  0 34  0  0
   -6.4473   -2.5765    1.3601 H   0  0  0  0  0  0  0  0  0 38  0  0
   -4.8153   -1.9270    0.1540 C   0  0  0  0  0  0  0  0  0 35  0  0
   -5.1373   -2.4312   -0.7353 H   0  0  0  0  0  0  0  0  0 37  0  0
   -3.6489   -1.1623    0.0822 C   0  0  0  0  0  0  0  0  0 36  0  0
  1  2  2  0
  2  3  4  0
  3  4  4  0
  4  5  4  0
  5  6  1  0
  5  7  4  0
  7  8  1  0
  8  9  1  0
  8 10  1  0
 10 11  1  0
 10 12  1  0
 12 13  1  0
 12 14  1  0
 12 15  1  0
 15 16  1  0
 16 17  4  0
 17 18  1  0
 17 19  4  0
 19 20  4  0
 20 21  1  0
 20 22  4  0
 22 23  1  0
 15 24  1  0
 15 25  1  0
 10 26  1  0
  7 27  4  0
 27 28  1  0
 27 29  4  0
 29 30  1  0
  4 31  4  0
 31 32  4  0
 32 33  4  0
 33 34  1  0
 33 35  4  0
 35 36  1  0
 35 37  4  0
 37 38  1  0
 37 39  4  0
 39 40  1  0
 39 41  4  0
 41  2  4  0
 29  3  4  0
 41 32  4  0
 22 16  4  0
M  END
>  <sample_id>  (3)
train::O=c1c2ccccc2oc2cc(NCCCn3ccnc3)ccc12__gen0002

>  <partition>  (3)
BAT_EXTERNAL_CONFIRM

>  <method>  (3)
BA_seed193

>  <candidate>  (3)
primary

$$$$
train::C=CCNC(=O)N1CCC(c2nc3ccccc3s2)CC1__gen0000
     RDKit          3D

 40 42  0  0  0  0  0  0  0  0999 V2000
    2.8553    2.4454   -1.0827 C   0  0  0  0  0  0  0  0  0  0  0  0
    1.5604    2.1951   -0.9693 C   0  0  0  0  0  0  0  0  0  1  0  0
    0.6097    2.9700   -0.1227 C   0  0  0  0  0  0  0  0  0  2  0  0
   -0.1282    2.1360    0.8017 N   0  0  0  0  0  0  0  0  0  3  0  0
   -1.3287    1.6117    0.4199 C   0  0  0  0  0  0  0  0  0  4  0  0
   -1.9027    1.9677   -0.5898 O   0  0  0  0  0  0  0  0  0  5  0  0
   -1.9297    0.7391    1.3102 N   0  0  0  0  0  0  0  0  0  6  0  0
   -3.2477    0.2711    0.9854 C   0  0  0  0  0  0  0  0  0  7  0  0
   -3.8357    0.2441    1.9169 H   0  0  0  0  0  0  0  0  0  8  0  0
   -3.7113    0.9787    0.3053 H   0  0  0  0  0  0  0  0  0 33  0  0
   -3.1904   -1.1240    0.3758 C   0  0  0  0  0  0  0  0  0  9  0  0
   -4.1137   -1.6641    0.5754 H   0  0  0  0  0  0  0  0  0 10  0  0
   -3.0981   -1.0312   -0.7220 H   0  0  0  0  0  0  0  0  0 11  0  0
   -1.9799   -1.9055    0.9082 C   0  0  1  0  0  0  0  0  0 12  0  0
   -0.7642   -1.7130    0.0665 C   0  0  0  0  0  0  0  0  0 13  0  0
    0.4137   -1.4629    0.5177 N   0  0  0  0  0  0  0  0  0 14  0  0
    1.3408   -1.3893   -0.4763 C   0  0  0  0  0  0  0  0  0 15  0  0
    2.7029   -1.1286   -0.2923 C   0  0  0  0  0  0  0  0  0 16  0  0
    3.0924   -0.9946    0.7107 H   0  0  0  0  0  0  0  0  0 25  0  0
    3.5225   -1.0669   -1.3933 C   0  0  0  0  0  0  0  0  0 17  0  0
    4.5834   -0.8830   -1.2675 H   0  0  0  0  0  0  0  0  0 24  0  0
    3.0206   -1.2541   -2.6759 C   0  0  0  0  0  0  0  0  0 18  0  0
    3.6795   -1.2048   -3.5310 H   0  0  0  0  0  0  0  0  0 23  0  0
    1.6699   -1.5004   -2.8800 C   0  0  0  0  0  0  0  0  0 19  0  0
    1.2697   -1.6453   -3.8681 H   0  0  0  0  0  0  0  0  0 22  0  0
    0.8433   -1.5644   -1.7755 C   0  0  0  0  0  0  0  0  0 20  0  0
   -0.8689   -1.8765   -1.6897 S   0  0  0  0  0  0  0  0  0 21  0  0
   -2.2166   -2.9594    0.9072 H   0  0  0  0  0  0  0  0  0 26  0  0
   -1.6913   -1.4584    2.3486 C   0  0  0  0  0  0  0  0  0 27  0  0
   -0.8754   -2.0634    2.7631 H   0  0  0  0  0  0  0  0  0 31  0  0
   -2.5806   -1.6270    2.9473 H   0  0  0  0  0  0  0  0  0 32  0  0
   -1.2853    0.0311    2.3791 C   0  0  0  0  0  0  0  0  0 28  0  0
   -0.1982    0.0803    2.2613 H   0  0  0  0  0  0  0  0  0 29  0  0
   -1.5578    0.4729    3.3471 H   0  0  0  0  0  0  0  0  0 30  0  0
    0.4081    1.6975    1.5243 H   0  0  0  0  0  0  0  0  0 34  0  0
   -0.1406    3.4628   -0.7635 H   0  0  0  0  0  0  0  0  0 35  0  0
    1.1460    3.7408    0.4583 H   0  0  0  0  0  0  0  0  0 36  0  0
    1.0983    1.3678   -1.4921 H   0  0  0  0  0  0  0  0  0 37  0  0
    3.5054    1.8575   -1.7053 H   0  0  0  0  0  0  0  0  0 38  0  0
    3.3231    3.2475   -0.5332 H   0  0  0  0  0  0  0  0  0 39  0  0
  1  2  2  0
  2  3  1  0
  3  4  1  0
  4  5  1  0
  5  6  2  0
  5  7  1  0
  7  8  1  0
  8  9  1  0
  8 10  1  0
  8 11  1  0
 11 12  1  0
 11 13  1  0
 11 14  1  0
 14 15  1  0
 15 16  4  0
 16 17  4  0
 17 18  4  0
 18 19  1  0
 18 20  4  0
 20 21  1  0
 20 22  4  0
 22 23  1  0
 22 24  4  0
 24 25  1  0
 24 26  4  0
 26 27  4  0
 14 28  1  1
 14 29  1  0
 29 30  1  0
 29 31  1  0
 29 32  1  0
 32 33  1  0
 32 34  1  0
  4 35  1  0
  3 36  1  0
  3 37  1  0
  2 38  1  0
  1 39  1  0
  1 40  1  0
 32  7  1  0
 27 15  4  0
 26 17  4  0
M  END
>  <sample_id>  (4)
train::C=CCNC(=O)N1CCC(c2nc3ccccc3s2)CC1__gen0000

>  <partition>  (4)
BAT_EXTERNAL_CONFIRM

>  <method>  (4)
BA_seed193

>  <candidate>  (4)
primary

$$$$
train::C=CCNC(=O)N1CCC(c2nc3ccccc3s2)CC1__gen0001
     RDKit          3D

 40 42  0  0  0  0  0  0  0  0999 V2000
    1.0394   -2.3528   -4.9734 C   0  0  0  0  0  0  0  0  0  0  0  0
    0.9488   -2.6280   -3.6844 C   0  0  0  0  0  0  0  0  0  1  0  0
    2.0710   -3.1644   -2.8616 C   0  0  0  0  0  0  0  0  0  2  0  0
    2.3169   -2.3509   -1.6770 N   0  0  0  0  0  0  0  0  0  3  0  0
    1.7424   -2.7006   -0.4760 C   0  0  0  0  0  0  0  0  0  4  0  0
    1.1852   -3.7731   -0.3353 O   0  0  0  0  0  0  0  0  0  5  0  0
    1.9555   -1.8544    0.5707 N   0  0  0  0  0  0  0  0  0  6  0  0
    2.5385   -0.5325    0.5122 C   0  0  0  0  0  0  0  0  0  7  0  0
    3.2075   -0.4474   -0.3429 H   0  0  0  0  0  0  0  0  0  8  0  0
    3.1524   -0.4050    1.4092 H   0  0  0  0  0  0  0  0  0 33  0  0
    1.4517    0.5467    0.4805 C   0  0  0  0  0  0  0  0  0  9  0  0
    0.8298    0.4266   -0.4040 H   0  0  0  0  0  0  0  0  0 10  0  0
    1.9112    1.5329    0.4552 H   0  0  0  0  0  0  0  0  0 11  0  0
    0.5664    0.4104    1.7250 C   0  0  1  0  0  0  0  0  0 12  0  0
   -0.5467    1.3969    1.6835 C   0  0  0  0  0  0  0  0  0 13  0  0
   -1.4331    1.4258    0.7606 N   0  0  0  0  0  0  0  0  0 14  0  0
   -2.3457    2.4245    0.9688 C   0  0  0  0  0  0  0  0  0 15  0  0
   -3.4379    2.7167    0.1435 C   0  0  0  0  0  0  0  0  0 16  0  0
   -3.6314    2.0928   -0.7203 H   0  0  0  0  0  0  0  0  0 25  0  0
   -4.2701    3.7628    0.4807 C   0  0  0  0  0  0  0  0  0 17  0  0
   -5.1195    3.9862   -0.1444 H   0  0  0  0  0  0  0  0  0 24  0  0
   -4.0179    4.5455    1.5993 C   0  0  0  0  0  0  0  0  0 18  0  0
   -4.6817    5.3609    1.8462 H   0  0  0  0  0  0  0  0  0 23  0  0
   -2.9519    4.2726    2.4364 C   0  0  0  0  0  0  0  0  0 19  0  0
   -2.7447    4.8795    3.3092 H   0  0  0  0  0  0  0  0  0 22  0  0
   -2.1072    3.2328    2.0977 C   0  0  0  0  0  0  0  0  0 20  0  0
   -0.6970    2.6267    2.9263 S   0  0  0  0  0  0  0  0  0 21  0  0
    1.1685    0.6080    2.6193 H   0  0  0  0  0  0  0  0  0 26  0  0
    0.0068   -1.0144    1.7946 C   0  0  0  0  0  0  0  0  0 27  0  0
   -0.5758   -1.1385    2.7091 H   0  0  0  0  0  0  0  0  0 31  0  0
   -0.6561   -1.1819    0.9454 H   0  0  0  0  0  0  0  0  0 32  0  0
    1.1438   -2.0379    1.7565 C   0  0  0  0  0  0  0  0  0 28  0  0
    0.7440   -3.0549    1.7284 H   0  0  0  0  0  0  0  0  0 29  0  0
    1.7697   -1.9327    2.6447 H   0  0  0  0  0  0  0  0  0 30  0  0
    2.4766   -1.3680   -1.8657 H   0  0  0  0  0  0  0  0  0 34  0  0
    2.9959   -3.2206   -3.4433 H   0  0  0  0  0  0  0  0  0 35  0  0
    1.8183   -4.1605   -2.4862 H   0  0  0  0  0  0  0  0  0 36  0  0
    0.0217   -2.4608   -3.1484 H   0  0  0  0  0  0  0  0  0 37  0  0
    1.9528   -2.5157   -5.5206 H   0  0  0  0  0  0  0  0  0 38  0  0
    0.2019   -1.9531   -5.5195 H   0  0  0  0  0  0  0  0  0 39  0  0
  1  2  2  0
  2  3  1  0
  3  4  1  0
  4  5  1  0
  5  6  2  0
  5  7  1  0
  7  8  1  0
  8  9  1  0
  8 10  1  0
  8 11  1  0
 11 12  1  0
 11 13  1  0
 11 14  1  0
 14 15  1  0
 15 16  4  0
 16 17  4  0
 17 18  4  0
 18 19  1  0
 18 20  4  0
 20 21  1  0
 20 22  4  0
 22 23  1  0
 22 24  4  0
 24 25  1  0
 24 26  4  0
 26 27  4  0
 14 28  1  1
 14 29  1  0
 29 30  1  0
 29 31  1  0
 29 32  1  0
 32 33  1  0
 32 34  1  0
  4 35  1  0
  3 36  1  0
  3 37  1  0
  2 38  1  0
  1 39  1  0
  1 40  1  0
 32  7  1  0
 27 15  4  0
 26 17  4  0
M  END
>  <sample_id>  (5)
train::C=CCNC(=O)N1CCC(c2nc3ccccc3s2)CC1__gen0001

>  <partition>  (5)
BAT_EXTERNAL_CONFIRM

>  <method>  (5)
BA_seed193

>  <candidate>  (5)
primary

$$$$
train::C=CCNC(=O)N1CCC(c2nc3ccccc3s2)CC1__gen0002
     RDKit          3D

 40 42  0  0  0  0  0  0  0  0999 V2000
    2.4916   -2.1661    2.5207 C   0  0  0  0  0  0  0  0  0  0  0  0
    3.7074   -2.5094    2.1092 C   0  0  0  0  0  0  0  0  0  1  0  0
    4.1662   -2.5305    0.6959 C   0  0  0  0  0  0  0  0  0  2  0  0
    3.1156   -2.4143   -0.2851 N   0  0  0  0  0  0  0  0  0  3  0  0
    2.9218   -1.2569   -0.9919 C   0  0  0  0  0  0  0  0  0  4  0  0
    3.7839   -0.3867   -0.9925 O   0  0  0  0  0  0  0  0  0  5  0  0
    1.8181   -1.1990   -1.7996 N   0  0  0  0  0  0  0  0  0  6  0  0
    0.6024   -1.9549   -1.6209 C   0  0  0  0  0  0  0  0  0  7  0  0
    0.7935   -2.9390   -1.1872 H   0  0  0  0  0  0  0  0  0  8  0  0
    0.1622   -2.1049   -2.6169 H   0  0  0  0  0  0  0  0  0 33  0  0
   -0.3840   -1.1742   -0.7413 C   0  0  0  0  0  0  0  0  0  9  0  0
   -1.3080   -1.7439   -0.6122 H   0  0  0  0  0  0  0  0  0 10  0  0
    0.0584   -1.0064    0.2457 H   0  0  0  0  0  0  0  0  0 11  0  0
   -0.6965    0.1769   -1.4067 C   0  0  1  0  0  0  0  0  0 12  0  0
   -1.6098    0.9746   -0.5530 C   0  0  0  0  0  0  0  0  0 13  0  0
   -2.7815    1.3487   -0.8994 N   0  0  0  0  0  0  0  0  0 14  0  0
   -3.4004    2.0730    0.0790 C   0  0  0  0  0  0  0  0  0 15  0  0
   -4.6817    2.6148    0.0081 C   0  0  0  0  0  0  0  0  0 16  0  0
   -5.2684    2.4857   -0.8903 H   0  0  0  0  0  0  0  0  0 25  0  0
   -5.1671    3.3139    1.0936 C   0  0  0  0  0  0  0  0  0 17  0  0
   -6.1657    3.7403    1.0395 H   0  0  0  0  0  0  0  0  0 24  0  0
   -4.4135    3.4814    2.2462 C   0  0  0  0  0  0  0  0  0 18  0  0
   -4.8243    4.0342    3.0722 H   0  0  0  0  0  0  0  0  0 23  0  0
   -3.1459    2.9461    2.3410 C   0  0  0  0  0  0  0  0  0 19  0  0
   -2.5507    3.0800    3.2342 H   0  0  0  0  0  0  0  0  0 22  0  0
   -2.6528    2.2372    1.2616 C   0  0  0  0  0  0  0  0  0 20  0  0
   -1.1114    1.4664    1.0643 S   0  0  0  0  0  0  0  0  0 21  0  0
   -1.1992   -0.0038   -2.3631 H   0  0  0  0  0  0  0  0  0 26  0  0
    0.6230    0.9344   -1.6615 C   0  0  0  0  0  0  0  0  0 27  0  0
    1.0923    1.1839   -0.7167 H   0  0  0  0  0  0  0  0  0 31  0  0
    0.4038    1.8583   -2.2044 H   0  0  0  0  0  0  0  0  0 32  0  0
    1.5726    0.0529   -2.4796 C   0  0  0  0  0  0  0  0  0 28  0  0
    1.1501   -0.1478   -3.4652 H   0  0  0  0  0  0  0  0  0 29  0  0
    2.5362    0.5682   -2.5968 H   0  0  0  0  0  0  0  0  0 30  0  0
    2.3478   -3.0617   -0.1737 H   0  0  0  0  0  0  0  0  0 34  0  0
    4.8475   -1.6828    0.5133 H   0  0  0  0  0  0  0  0  0 35  0  0
    4.7248   -3.4509    0.4967 H   0  0  0  0  0  0  0  0  0 36  0  0
    4.4702   -2.7879    2.8270 H   0  0  0  0  0  0  0  0  0 37  0  0
    1.7303   -1.8677    1.8488 H   0  0  0  0  0  0  0  0  0 38  0  0
    2.2414   -2.1821    3.5610 H   0  0  0  0  0  0  0  0  0 39  0  0
  1  2  2  0
  2  3  1  0
  3  4  1  0
  4  5  1  0
  5  6  2  0
  5  7  1  0
  7  8  1  0
  8  9  1  0
  8 10  1  0
  8 11  1  0
 11 12  1  0
 11 13  1  0
 11 14  1  0
 14 15  1  0
 15 16  4  0
 16 17  4  0
 17 18  4  0
 18 19  1  0
 18 20  4  0
 20 21  1  0
 20 22  4  0
 22 23  1  0
 22 24  4  0
 24 25  1  0
 24 26  4  0
 26 27  4  0
 14 28  1  6
 14 29  1  0
 29 30  1  0
 29 31  1  0
 29 32  1  0
 32 33  1  0
 32 34  1  0
  4 35  1  0
  3 36  1  0
  3 37  1  0
  2 38  1  0
  1 39  1  0
  1 40  1  0
 32  7  1  0
 27 15  4  0
 26 17  4  0
M  END
>  <sample_id>  (6)
train::C=CCNC(=O)N1CCC(c2nc3ccccc3s2)CC1__gen0002

>  <partition>  (6)
BAT_EXTERNAL_CONFIRM

>  <method>  (6)
BA_seed193

>  <candidate>  (6)
primary

$$$$
train::CCOC(=O)COc1ccc(S(=O)(=O)Nc2ccc3c(c2)OCO3)cc1__gen0000
     RDKit          3D

 43 45  0  0  0  0  0  0  0  0999 V2000
   -1.9115   -2.6768    2.6211 C   0  0  0  0  0  0  0  0  0  0  0  0
   -0.9556   -1.6200    2.0570 C   0  0  0  0  0  0  0  0  0  1  0  0
   -1.4991   -0.8783    1.4695 H   0  0  0  0  0  0  0  0  0  2  0  0
   -0.4249   -1.1182    2.8796 H   0  0  0  0  0  0  0  0  0  3  0  0
   -0.0143   -2.1900    1.1572 O   0  0  0  0  0  0  0  0  0  4  0  0
    1.0740   -2.7373    1.6836 C   0  0  0  0  0  0  0  0  0  5  0  0
    1.3468   -2.7809    2.8539 O   0  0  0  0  0  0  0  0  0  6  0  0
    1.9795   -3.3152    0.5836 C   0  0  0  0  0  0  0  0  0  7  0  0
    1.6824   -2.8426   -0.7025 O   0  0  0  0  0  0  0  0  0  8  0  0
    1.8157   -1.5259   -0.9804 C   0  0  0  0  0  0  0  0  0  9  0  0
    1.4102   -1.1310   -2.2485 C   0  0  0  0  0  0  0  0  0 10  0  0
    1.0203   -1.8866   -2.9147 H   0  0  0  0  0  0  0  0  0 37  0  0
    1.4839    0.1946   -2.6263 C   0  0  0  0  0  0  0  0  0 11  0  0
    1.1634    0.5215   -3.5991 H   0  0  0  0  0  0  0  0  0 36  0  0
    1.9689    1.1176   -1.7278 C   0  0  0  0  0  0  0  0  0 12  0  0
    1.9875    2.8523   -2.1525 S   0  0  2  0  0  6  0  0  0 17  0  0
    1.3875    3.0369   -3.4426 O   0  0  0  0  0  0  0  0  0 18  0  0
    3.2735    3.4421   -1.9218 O   0  0  0  0  0  0  0  0  0 19  0  0
    0.9968    3.5386   -0.9608 N   0  0  0  0  0  0  0  0  0 20  0  0
   -0.1061    2.8451   -0.5053 C   0  0  0  0  0  0  0  0  0 21  0  0
   -0.4461    2.8433    0.8558 C   0  0  0  0  0  0  0  0  0 22  0  0
    0.1651    3.4064    1.5408 H   0  0  0  0  0  0  0  0  0 34  0  0
   -1.5369    2.1395    1.3411 C   0  0  0  0  0  0  0  0  0 23  0  0
   -1.7951    2.1429    2.3875 H   0  0  0  0  0  0  0  0  0 33  0  0
   -2.2768    1.4261    0.4178 C   0  0  0  0  0  0  0  0  0 24  0  0
   -1.9586    1.4347   -0.9408 C   0  0  0  0  0  0  0  0  0 25  0  0
   -0.8795    2.1401   -1.4237 C   0  0  0  0  0  0  0  0  0 26  0  0
   -0.6500    2.1542   -2.4759 H   0  0  0  0  0  0  0  0  0 27  0  0
   -2.8391    0.6369   -1.6161 O   0  0  0  0  0  0  0  0  0 28  0  0
   -3.7424    0.1496   -0.6453 C   0  0  0  0  0  0  0  0  0 29  0  0
   -4.7617    0.4935   -0.8884 H   0  0  0  0  0  0  0  0  0 31  0  0
   -3.7310   -0.9519   -0.6683 H   0  0  0  0  0  0  0  0  0 32  0  0
   -3.3638    0.6237    0.6255 O   0  0  0  0  0  0  0  0  0 30  0  0
    1.5469    4.0136   -0.2571 H   0  0  0  0  0  0  0  0  0 35  0  0
    2.4011    0.7458   -0.4670 C   0  0  0  0  0  0  0  0  0 13  0  0
    2.7842    1.5033    0.1923 H   0  0  0  0  0  0  0  0  0 16  0  0
    2.3206   -0.5752   -0.0834 C   0  0  0  0  0  0  0  0  0 14  0  0
    2.6490   -0.8504    0.9055 H   0  0  0  0  0  0  0  0  0 15  0  0
    3.0247   -3.1454    0.8722 H   0  0  0  0  0  0  0  0  0 38  0  0
    1.8138   -4.4004    0.5510 H   0  0  0  0  0  0  0  0  0 39  0  0
   -2.3831   -3.2071    1.7995 H   0  0  0  0  0  0  0  0  0 40  0  0
   -1.3514   -3.3783    3.2258 H   0  0  0  0  0  0  0  0  0 41  0  0
   -2.6686   -2.1909    3.2283 H   0  0  0  0  0  0  0  0  0 42  0  0
  1  2  1  0
  2  3  1  0
  2  4  1  0
  2  5  1  0
  5  6  1  0
  6  7  2  0
  6  8  1  0
  8  9  1  0
  9 10  1  0
 10 11  4  0
 11 12  1  0
 11 13  4  0
 13 14  1  0
 13 15  4  0
 15 16  1  0
 16 17  2  0
 16 18  2  0
 16 19  1  1
 19 20  1  0
 20 21  4  0
 21 22  1  0
 21 23  4  0
 23 24  1  0
 23 25  4  0
 25 26  4  0
 26 27  4  0
 27 28  1  0
 26 29  1  0
 29 30  1  0
 30 31  1  0
 30 32  1  0
 30 33  1  0
 19 34  1  0
 15 35  4  0
 35 36  1  0
 35 37  4  0
 37 38  1  0
  8 39  1  0
  8 40  1  0
  1 41  1  0
  1 42  1  0
  1 43  1  0
 37 10  4  0
 27 20  4  0
 33 25  1  0
M  END
>  <sample_id>  (7)
train::CCOC(=O)COc1ccc(S(=O)(=O)Nc2ccc3c(c2)OCO3)cc1__gen0000

>  <partition>  (7)
BAT_EXTERNAL_CONFIRM

>  <method>  (7)
BA_seed193

>  <candidate>  (7)
primary

$$$$
train::CCOC(=O)COc1ccc(S(=O)(=O)Nc2ccc3c(c2)OCO3)cc1__gen0001
     RDKit          3D

 43 45  0  0  0  0  0  0  0  0999 V2000
    3.7141    0.7795   -0.5315 C   0  0  0  0  0  0  0  0  0  0  0  0
    3.7880    0.5712    0.9713 C   0  0  0  0  0  0  0  0  0  1  0  0
    4.7749    0.7830    1.3589 H   0  0  0  0  0  0  0  0  0  2  0  0
    3.4969   -0.4562    1.2099 H   0  0  0  0  0  0  0  0  0  3  0  0
    2.8980    1.4594    1.6555 O   0  0  0  0  0  0  0  0  0  4  0  0
    1.6960    1.0237    1.9735 C   0  0  0  0  0  0  0  0  0  5  0  0
    1.2651   -0.0831    1.7387 O   0  0  0  0  0  0  0  0  0  6  0  0
    0.9160    2.1057    2.6929 C   0  0  0  0  0  0  0  0  0  7  0  0
   -0.4544    1.7876    2.8277 O   0  0  0  0  0  0  0  0  0  8  0  0
   -1.1834    1.6047    1.6860 C   0  0  0  0  0  0  0  0  0  9  0  0
   -0.7432    1.9191    0.4056 C   0  0  0  0  0  0  0  0  0 10  0  0
    0.2184    2.3839    0.2474 H   0  0  0  0  0  0  0  0  0 37  0  0
   -1.5605    1.6561   -0.6765 C   0  0  0  0  0  0  0  0  0 11  0  0
   -1.2588    1.9098   -1.6758 H   0  0  0  0  0  0  0  0  0 36  0  0
   -2.7953    1.0576   -0.4809 C   0  0  0  0  0  0  0  0  0 12  0  0
   -3.6988    0.4402   -1.9035 S   0  0  2  0  0  6  0  0  0 17  0  0
   -3.2503    1.0893   -3.0974 O   0  0  0  0  0  0  0  0  0 18  0  0
   -5.1032    0.4343   -1.6070 O   0  0  0  0  0  0  0  0  0 19  0  0
   -3.2212   -1.1571   -1.9267 N   0  0  0  0  0  0  0  0  0 20  0  0
   -1.8606   -1.4412   -1.6932 C   0  0  0  0  0  0  0  0  0 21  0  0
   -0.9100   -0.7518   -2.4300 C   0  0  0  0  0  0  0  0  0 22  0  0
   -1.2453   -0.0952   -3.1919 H   0  0  0  0  0  0  0  0  0 34  0  0
    0.4580   -0.9345   -2.1838 C   0  0  0  0  0  0  0  0  0 23  0  0
    1.1993   -0.3886   -2.7304 H   0  0  0  0  0  0  0  0  0 33  0  0
    0.8133   -1.8009   -1.1740 C   0  0  0  0  0  0  0  0  0 24  0  0
   -0.1477   -2.5155   -0.4586 C   0  0  0  0  0  0  0  0  0 25  0  0
   -1.5033   -2.3489   -0.6917 C   0  0  0  0  0  0  0  0  0 26  0  0
   -2.2417   -2.8918   -0.1221 H   0  0  0  0  0  0  0  0  0 27  0  0
    0.4605   -3.3436    0.4271 O   0  0  0  0  0  0  0  0  0 28  0  0
    1.8386   -3.0343    0.3426 C   0  0  0  0  0  0  0  0  0 29  0  0
    2.1376   -2.5837    1.3115 H   0  0  0  0  0  0  0  0  0 31  0  0
    2.4181   -3.9406    0.1706 H   0  0  0  0  0  0  0  0  0 32  0  0
    2.0561   -2.1188   -0.7110 O   0  0  0  0  0  0  0  0  0 30  0  0
   -3.8617   -1.7318   -1.3883 H   0  0  0  0  0  0  0  0  0 35  0  0
   -3.2318    0.7400    0.7925 C   0  0  0  0  0  0  0  0  0 13  0  0
   -4.2056    0.2827    0.9059 H   0  0  0  0  0  0  0  0  0 16  0  0
   -2.4328    1.0059    1.8677 C   0  0  0  0  0  0  0  0  0 14  0  0
   -2.7600    0.8126    2.8770 H   0  0  0  0  0  0  0  0  0 15  0  0
    1.1105    3.0716    2.2003 H   0  0  0  0  0  0  0  0  0 38  0  0
    1.2704    2.1755    3.7348 H   0  0  0  0  0  0  0  0  0 39  0  0
    4.4556    0.1495   -1.0272 H   0  0  0  0  0  0  0  0  0 40  0  0
    2.7363    0.5434   -0.9218 H   0  0  0  0  0  0  0  0  0 41  0  0
    3.9479    1.8311   -0.7742 H   0  0  0  0  0  0  0  0  0 42  0  0
  1  2  1  0
  2  3  1  0
  2  4  1  0
  2  5  1  0
  5  6  1  0
  6  7  2  0
  6  8  1  0
  8  9  1  0
  9 10  1  0
 10 11  4  0
 11 12  1  0
 11 13  4  0
 13 14  1  0
 13 15  4  0
 15 16  1  0
 16 17  2  0
 16 18  2  0
 16 19  1  6
 19 20  1  0
 20 21  4  0
 21 22  1  0
 21 23  4  0
 23 24  1  0
 23 25  4  0
 25 26  4  0
 26 27  4  0
 27 28  1  0
 26 29  1  0
 29 30  1  0
 30 31  1  0
 30 32  1  0
 30 33  1  0
 19 34  1  0
 15 35  4  0
 35 36  1  0
 35 37  4  0
 37 38  1  0
  8 39  1  0
  8 40  1  0
  1 41  1  0
  1 42  1  0
  1 43  1  0
 37 10  4  0
 27 20  4  0
 33 25  1  0
M  END
>  <sample_id>  (8)
train::CCOC(=O)COc1ccc(S(=O)(=O)Nc2ccc3c(c2)OCO3)cc1__gen0001

>  <partition>  (8)
BAT_EXTERNAL_CONFIRM

>  <method>  (8)
BA_seed193

>  <candidate>  (8)
primary

$$$$
train::CCOC(=O)COc1ccc(S(=O)(=O)Nc2ccc3c(c2)OCO3)cc1__gen0002
     RDKit          3D

 43 45  0  0  0  0  0  0  0  0999 V2000
    1.6835   -2.7710   -0.2126 C   0  0  0  0  0  0  0  0  0  0  0  0
    0.8652   -3.9277    0.3147 C   0  0  0  0  0  0  0  0  0  1  0  0
    0.2483   -4.3510   -0.4901 H   0  0  0  0  0  0  0  0  0  2  0  0
    1.5188   -4.6994    0.7304 H   0  0  0  0  0  0  0  0  0  3  0  0
    0.0192   -3.5450    1.3929 O   0  0  0  0  0  0  0  0  0  4  0  0
   -1.0704   -2.8516    1.1056 C   0  0  0  0  0  0  0  0  0  5  0  0
   -1.3953   -2.5065   -0.0069 O   0  0  0  0  0  0  0  0  0  6  0  0
   -1.8979   -2.5582    2.3486 C   0  0  0  0  0  0  0  0  0  7  0  0
   -2.8275   -1.5459    2.1320 O   0  0  0  0  0  0  0  0  0  8  0  0
   -2.3805   -0.3109    1.7693 C   0  0  0  0  0  0  0  0  0  9  0  0
   -3.3433    0.5636    1.2874 C   0  0  0  0  0  0  0  0  0 10  0  0
   -4.3693    0.2354    1.2417 H   0  0  0  0  0  0  0  0  0 37  0  0
   -2.9845    1.8382    0.8894 C   0  0  0  0  0  0  0  0  0 11  0  0
   -3.7208    2.5383    0.5201 H   0  0  0  0  0  0  0  0  0 36  0  0
   -1.6608    2.2370    0.9744 C   0  0  0  0  0  0  0  0  0 12  0  0
   -1.1816    3.8060    0.2946 S   0  0  2  0  0  6  0  0  0 17  0  0
   -0.0010    4.2856    0.9446 O   0  0  0  0  0  0  0  0  0 18  0  0
   -2.3160    4.6717    0.1884 O   0  0  0  0  0  0  0  0  0 19  0  0
   -0.8033    3.3670   -1.2892 N   0  0  0  0  0  0  0  0  0 20  0  0
    0.1285    2.3619   -1.5415 C   0  0  0  0  0  0  0  0  0 21  0  0
   -0.1764    1.3199   -2.4237 C   0  0  0  0  0  0  0  0  0 22  0  0
   -1.1513    1.3050   -2.8924 H   0  0  0  0  0  0  0  0  0 34  0  0
    0.7328    0.3169   -2.7033 C   0  0  0  0  0  0  0  0  0 23  0  0
    0.4922   -0.4886   -3.3786 H   0  0  0  0  0  0  0  0  0 33  0  0
    1.9470    0.3543   -2.0535 C   0  0  0  0  0  0  0  0  0 24  0  0
    2.2553    1.4036   -1.1829 C   0  0  0  0  0  0  0  0  0 25  0  0
    1.3702    2.4203   -0.9052 C   0  0  0  0  0  0  0  0  0 26  0  0
    1.6056    3.2299   -0.2361 H   0  0  0  0  0  0  0  0  0 27  0  0
    3.5267    1.2330   -0.6994 O   0  0  0  0  0  0  0  0  0 28  0  0
    4.0361    0.0776   -1.3453 C   0  0  0  0  0  0  0  0  0 29  0  0
    4.3661   -0.6513   -0.5851 H   0  0  0  0  0  0  0  0  0 31  0  0
    4.8914    0.3687   -1.9795 H   0  0  0  0  0  0  0  0  0 32  0  0
    3.0194   -0.4782   -2.1499 O   0  0  0  0  0  0  0  0  0 30  0  0
   -1.6523    3.3388   -1.8490 H   0  0  0  0  0  0  0  0  0 35  0  0
   -0.6943    1.3789    1.4707 C   0  0  0  0  0  0  0  0  0 13  0  0
    0.3238    1.7190    1.5346 H   0  0  0  0  0  0  0  0  0 16  0  0
   -1.0474    0.0938    1.8523 C   0  0  0  0  0  0  0  0  0 14  0  0
   -0.2886   -0.5628    2.2315 H   0  0  0  0  0  0  0  0  0 15  0  0
   -1.2298   -2.3473    3.2060 H   0  0  0  0  0  0  0  0  0 38  0  0
   -2.4883   -3.4591    2.5844 H   0  0  0  0  0  0  0  0  0 39  0  0
    2.2160   -2.2581    0.5743 H   0  0  0  0  0  0  0  0  0 40  0  0
    2.3917   -3.1184   -0.9617 H   0  0  0  0  0  0  0  0  0 41  0  0
    1.0429   -2.0335   -0.7020 H   0  0  0  0  0  0  0  0  0 42  0  0
  1  2  1  0
  2  3  1  0
  2  4  1  0
  2  5  1  0
  5  6  1  0
  6  7  2  0
  6  8  1  0
  8  9  1  0
  9 10  1  0
 10 11  4  0
 11 12  1  0
 11 13  4  0
 13 14  1  0
 13 15  4  0
 15 16  1  0
 16 17  2  0
 16 18  2  0
 16 19  1  6
 19 20  1  0
 20 21  4  0
 21 22  1  0
 21 23  4  0
 23 24  1  0
 23 25  4  0
 25 26  4  0
 26 27  4  0
 27 28  1  0
 26 29  1  0
 29 30  1  0
 30 31  1  0
 30 32  1  0
 30 33  1  0
 19 34  1  0
 15 35  4  0
 35 36  1  0
 35 37  4  0
 37 38  1  0
  8 39  1  0
  8 40  1  0
  1 41  1  0
  1 42  1  0
  1 43  1  0
 37 10  4  0
 27 20  4  0
 33 25  1  0
M  END
>  <sample_id>  (9)
train::CCOC(=O)COc1ccc(S(=O)(=O)Nc2ccc3c(c2)OCO3)cc1__gen0002

>  <partition>  (9)
BAT_EXTERNAL_CONFIRM

>  <method>  (9)
BA_seed193

>  <candidate>  (9)
primary

$$$$
train::O=C(CCC1CCCN(Cc2ccc3c(c2)CCO3)C1)NCc1ccc(F)c(F)c1__gen0000
     RDKit          3D

 58 61  0  0  0  0  0  0  0  0999 V2000
    0.2758   -2.0920    1.8293 O   0  0  0  0  0  0  0  0  0  0  0  0
   -0.8572   -2.1269    1.4317 C   0  0  0  0  0  0  0  0  0  1  0  0
   -1.1807   -2.6386    0.1906 N   0  0  0  0  0  0  0  0  0  2  0  0
   -2.1352   -2.6431   -0.1010 H   0  0  0  0  0  0  0  0  0  3  0  0
   -0.1518   -3.0691   -0.7289 C   0  0  0  0  0  0  0  0  0  4  0  0
   -0.0500   -2.1638   -1.9166 C   0  0  0  0  0  0  0  0  0  5  0  0
   -0.1999   -0.7954   -1.7541 C   0  0  0  0  0  0  0  0  0  6  0  0
   -0.3827   -0.3691   -0.7803 H   0  0  0  0  0  0  0  0  0 15  0  0
   -0.0926    0.0571   -2.8348 C   0  0  0  0  0  0  0  0  0  7  0  0
   -0.2630    1.3759   -2.6663 F   0  0  0  0  0  0  0  0  0 14  0  0
    0.1750   -0.4382   -4.1030 C   0  0  0  0  0  0  0  0  0  8  0  0
    0.2680    0.3806   -5.1536 F   0  0  0  0  0  0  0  0  0 13  0  0
    0.3649   -1.8065   -4.2814 C   0  0  0  0  0  0  0  0  0  9  0  0
    0.5732   -2.1932   -5.2608 H   0  0  0  0  0  0  0  0  0 12  0  0
    0.2506   -2.6438   -3.1907 C   0  0  0  0  0  0  0  0  0 10  0  0
    0.3874   -3.7085   -3.3253 H   0  0  0  0  0  0  0  0  0 11  0  0
   -0.3472   -4.1006   -1.0431 H   0  0  0  0  0  0  0  0  0 16  0  0
    0.7854   -3.0478   -0.1645 H   0  0  0  0  0  0  0  0  0 17  0  0
   -2.0221   -1.6460    2.2631 C   0  0  0  0  0  0  0  0  0 18  0  0
   -2.5877   -2.5306    2.5834 H   0  0  0  0  0  0  0  0  0 19  0  0
   -1.5886   -1.1908    3.1546 H   0  0  0  0  0  0  0  0  0 20  0  0
   -3.0161   -0.6875    1.6083 C   0  0  0  0  0  0  0  0  0 21  0  0
   -3.6091   -1.2280    0.8741 H   0  0  0  0  0  0  0  0  0 22  0  0
   -3.7119   -0.3542    2.3844 H   0  0  0  0  0  0  0  0  0 23  0  0
   -2.3960    0.5458    0.9376 C   0  0  2  0  0  0  0  0  0 24  0  0
   -2.0022    0.2783   -0.0517 H   0  0  0  0  0  0  0  0  0 57  0  0
   -1.2470    1.1681    1.7184 C   0  0  0  0  0  0  0  0  0 25  0  0
   -1.5975    1.4940    2.7115 H   0  0  0  0  0  0  0  0  0 55  0  0
   -0.4482    0.4202    1.8933 H   0  0  0  0  0  0  0  0  0 56  0  0
   -0.6738    2.2599    0.9617 N   0  0  0  0  0  0  0  0  0 26  0  0
    0.5919    2.6822    1.5687 C   0  0  0  0  0  0  0  0  0 27  0  0
    1.6486    1.6332    1.3360 C   0  0  0  0  0  0  0  0  0 28  0  0
    2.3258    1.0384    2.3781 C   0  0  0  0  0  0  0  0  0 29  0  0
    2.1040    1.3241    3.3845 H   0  0  0  0  0  0  0  0  0 43  0  0
    3.2844    0.0486    2.1614 C   0  0  0  0  0  0  0  0  0 30  0  0
    3.8026   -0.4053    2.9724 H   0  0  0  0  0  0  0  0  0 42  0  0
    3.5295   -0.3257    0.8645 C   0  0  0  0  0  0  0  0  0 31  0  0
    2.8536    0.2562   -0.2038 C   0  0  0  0  0  0  0  0  0 32  0  0
    1.9053    1.2436    0.0179 C   0  0  0  0  0  0  0  0  0 33  0  0
    1.3907    1.7136   -0.8039 H   0  0  0  0  0  0  0  0  0 34  0  0
    3.3165   -0.3906   -1.4731 C   0  0  0  0  0  0  0  0  0 35  0  0
    2.5477   -0.9560   -1.9743 H   0  0  0  0  0  0  0  0  0 36  0  0
    3.6692    0.3372   -2.2021 H   0  0  0  0  0  0  0  0  0 37  0  0
    4.4068   -1.3398   -0.9529 C   0  0  0  0  0  0  0  0  0 38  0  0
    4.1592   -2.3338   -1.3557 H   0  0  0  0  0  0  0  0  0 39  0  0
    5.4380   -1.1237   -1.2090 H   0  0  0  0  0  0  0  0  0 40  0  0
    4.4263   -1.2745    0.4569 O   0  0  0  0  0  0  0  0  0 41  0  0
    0.9028    3.6107    1.0567 H   0  0  0  0  0  0  0  0  0 44  0  0
    0.4888    2.8848    2.6400 H   0  0  0  0  0  0  0  0  0 45  0  0
   -1.6404    3.3340    0.8096 C   0  0  0  0  0  0  0  0  0 46  0  0
   -1.9956    3.6844    1.7761 H   0  0  0  0  0  0  0  0  0 53  0  0
   -1.1639    4.1426    0.2648 H   0  0  0  0  0  0  0  0  0 54  0  0
   -2.8292    2.8124   -0.0128 C   0  0  0  0  0  0  0  0  0 47  0  0
   -2.4725    2.5012   -0.9971 H   0  0  0  0  0  0  0  0  0 51  0  0
   -3.5600    3.6245   -0.1285 H   0  0  0  0  0  0  0  0  0 52  0  0
   -3.4757    1.6146    0.6898 C   0  0  0  0  0  0  0  0  0 48  0  0
   -4.2868    1.2038    0.1038 H   0  0  0  0  0  0  0  0  0 49  0  0
   -3.8872    1.9532    1.6465 H   0  0  0  0  0  0  0  0  0 50  0  0
  1  2  2  0
  2  3  1  0
  3  4  1  0
  3  5  1  0
  5  6  1  0
  6  7  4  0
  7  8  1  0
  7  9  4  0
  9 10  1  0
  9 11  4  0
 11 12  1  0
 11 13  4  0
 13 14  1  0
 13 15  4  0
 15 16  1  0
  5 17  1  0
  5 18  1  0
  2 19  1  0
 19 20  1  0
 19 21  1  0
 19 22  1  0
 22 23  1  0
 22 24  1  0
 22 25  1  0
 25 26  1  6
 25 27  1  0
 27 28  1  0
 27 29  1  0
 27 30  1  0
 30 31  1  0
 31 32  1  0
 32 33  4  0
 33 34  1  0
 33 35  4  0
 35 36  1  0
 35 37  4  0
 37 38  4  0
 38 39  4  0
 39 40  1  0
 38 41  1  0
 41 42  1  0
 41 43  1  0
 41 44  1  0
 44 45  1  0
 44 46  1  0
 44 47  1  0
 31 48  1  0
 31 49  1  0
 30 50  1  0
 50 51  1  0
 50 52  1  0
 50 53  1  0
 53 54  1  0
 53 55  1  0
 53 56  1  0
 56 57  1  0
 56 58  1  0
 15  6  4  0
 56 25  1  0
 39 32  4  0
 47 37  1  0
M  END
>  <sample_id>  (10)
train::O=C(CCC1CCCN(Cc2ccc3c(c2)CCO3)C1)NCc1ccc(F)c(F)c1__gen0000

>  <partition>  (10)
BAT_EXTERNAL_CONFIRM

>  <method>  (10)
BA_seed193

>  <candidate>  (10)
primary

$$$$
train::O=C(CCC1CCCN(Cc2ccc3c(c2)CCO3)C1)NCc1ccc(F)c(F)c1__gen0001
     RDKit          3D

 58 61  0  0  0  0  0  0  0  0999 V2000
   -2.6489   -0.5626   -0.1087 O   0  0  0  0  0  0  0  0  0  0  0  0
   -2.4429    0.1530   -1.0730 C   0  0  0  0  0  0  0  0  0  1  0  0
   -2.0956    1.4686   -0.9506 N   0  0  0  0  0  0  0  0  0  2  0  0
   -1.8764    2.0171   -1.7609 H   0  0  0  0  0  0  0  0  0  3  0  0
   -2.0157    2.1073    0.3413 C   0  0  0  0  0  0  0  0  0  4  0  0
   -0.6951    2.8186    0.5898 C   0  0  0  0  0  0  0  0  0  5  0  0
    0.4897    2.2798    0.1251 C   0  0  0  0  0  0  0  0  0  6  0  0
    0.5058    1.3492   -0.4373 H   0  0  0  0  0  0  0  0  0 15  0  0
    1.6825    2.9145    0.4023 C   0  0  0  0  0  0  0  0  0  7  0  0
    2.8206    2.3853   -0.0742 F   0  0  0  0  0  0  0  0  0 14  0  0
    1.7034    4.0739    1.1476 C   0  0  0  0  0  0  0  0  0  8  0  0
    2.8642    4.6869    1.4172 F   0  0  0  0  0  0  0  0  0 13  0  0
    0.5279    4.6129    1.6216 C   0  0  0  0  0  0  0  0  0  9  0  0
    0.5555    5.5213    2.1961 H   0  0  0  0  0  0  0  0  0 12  0  0
   -0.6704    3.9889    1.3393 C   0  0  0  0  0  0  0  0  0 10  0  0
   -1.5958    4.3941    1.7102 H   0  0  0  0  0  0  0  0  0 11  0  0
   -2.8449    2.8154    0.4617 H   0  0  0  0  0  0  0  0  0 16  0  0
   -2.1493    1.2992    1.0694 H   0  0  0  0  0  0  0  0  0 17  0  0
   -2.6227   -0.3173   -2.5094 C   0  0  0  0  0  0  0  0  0 18  0  0
   -3.2868   -1.1811   -2.4865 H   0  0  0  0  0  0  0  0  0 19  0  0
   -3.1094    0.4816   -3.0691 H   0  0  0  0  0  0  0  0  0 20  0  0
   -1.3085   -0.6997   -3.1669 C   0  0  0  0  0  0  0  0  0 21  0  0
   -0.6707    0.1727   -3.2429 H   0  0  0  0  0  0  0  0  0 22  0  0
   -1.5280   -1.0427   -4.1708 H   0  0  0  0  0  0  0  0  0 23  0  0
   -0.5738   -1.8409   -2.4122 C   0  0  2  0  0  0  0  0  0 24  0  0
   -1.2209   -2.1862   -1.5879 H   0  0  0  0  0  0  0  0  0 57  0  0
    0.7445   -1.3490   -1.8096 C   0  0  0  0  0  0  0  0  0 25  0  0
    0.5552   -0.5027   -1.1503 H   0  0  0  0  0  0  0  0  0 55  0  0
    1.3988   -1.0279   -2.6153 H   0  0  0  0  0  0  0  0  0 56  0  0
    1.4372   -2.3705   -1.0640 N   0  0  0  0  0  0  0  0  0 26  0  0
    0.8830   -2.6567    0.2537 C   0  0  0  0  0  0  0  0  0 27  0  0
    1.0340   -1.4777    1.1685 C   0  0  0  0  0  0  0  0  0 28  0  0
    2.2656   -0.8415    1.2932 C   0  0  0  0  0  0  0  0  0 29  0  0
    3.0991   -1.2150    0.7184 H   0  0  0  0  0  0  0  0  0 43  0  0
    2.4357    0.2636    2.1043 C   0  0  0  0  0  0  0  0  0 30  0  0
    3.3902    0.7666    2.1988 H   0  0  0  0  0  0  0  0  0 42  0  0
    1.3300    0.7064    2.8031 C   0  0  0  0  0  0  0  0  0 31  0  0
    0.0913    0.0776    2.7329 C   0  0  0  0  0  0  0  0  0 32  0  0
   -0.0576   -1.0162    1.8959 C   0  0  0  0  0  0  0  0  0 33  0  0
   -1.0221   -1.4945    1.8063 H   0  0  0  0  0  0  0  0  0 34  0  0
   -0.8549    0.7607    3.6665 C   0  0  0  0  0  0  0  0  0 35  0  0
   -1.7963    1.0520    3.2141 H   0  0  0  0  0  0  0  0  0 36  0  0
   -1.0945    0.0898    4.4958 H   0  0  0  0  0  0  0  0  0 37  0  0
    0.0045    1.9644    4.1284 C   0  0  0  0  0  0  0  0  0 38  0  0
   -0.2477    2.9577    3.7221 H   0  0  0  0  0  0  0  0  0 39  0  0
   -0.0590    1.9978    5.2187 H   0  0  0  0  0  0  0  0  0 40  0  0
    1.3030    1.7939    3.6218 O   0  0  0  0  0  0  0  0  0 41  0  0
    1.4649   -3.4946    0.6674 H   0  0  0  0  0  0  0  0  0 44  0  0
   -0.1789   -2.9601    0.2095 H   0  0  0  0  0  0  0  0  0 45  0  0
    1.7022   -3.5269   -1.9003 C   0  0  0  0  0  0  0  0  0 46  0  0
    2.2098   -4.2853   -1.3017 H   0  0  0  0  0  0  0  0  0 53  0  0
    2.3854   -3.1996   -2.6875 H   0  0  0  0  0  0  0  0  0 54  0  0
    0.4435   -4.1124   -2.5408 C   0  0  0  0  0  0  0  0  0 47  0  0
    0.7564   -4.9386   -3.2029 H   0  0  0  0  0  0  0  0  0 51  0  0
   -0.2140   -4.5192   -1.7882 H   0  0  0  0  0  0  0  0  0 52  0  0
   -0.2969   -3.0307   -3.3303 C   0  0  0  0  0  0  0  0  0 48  0  0
   -1.2261   -3.4303   -3.7375 H   0  0  0  0  0  0  0  0  0 49  0  0
    0.3197   -2.6909   -4.1623 H   0  0  0  0  0  0  0  0  0 50  0  0
  1  2  2  0
  2  3  1  0
  3  4  1  0
  3  5  1  0
  5  6  1  0
  6  7  4  0
  7  8  1  0
  7  9  4  0
  9 10  1  0
  9 11  4  0
 11 12  1  0
 11 13  4  0
 13 14  1  0
 13 15  4  0
 15 16  1  0
  5 17  1  0
  5 18  1  0
  2 19  1  0
 19 20  1  0
 19 21  1  0
 19 22  1  0
 22 23  1  0
 22 24  1  0
 22 25  1  0
 25 26  1  1
 25 27  1  0
 27 28  1  0
 27 29  1  0
 27 30  1  0
 30 31  1  0
 31 32  1  0
 32 33  4  0
 33 34  1  0
 33 35  4  0
 35 36  1  0
 35 37  4  0
 37 38  4  0
 38 39  4  0
 39 40  1  0
 38 41  1  0
 41 42  1  0
 41 43  1  0
 41 44  1  0
 44 45  1  0
 44 46  1  0
 44 47  1  0
 31 48  1  0
 31 49  1  0
 30 50  1  0
 50 51  1  0
 50 52  1  0
 50 53  1  0
 53 54  1  0
 53 55  1  0
 53 56  1  0
 56 57  1  0
 56 58  1  0
 15  6  4  0
 56 25  1  0
 39 32  4  0
 47 37  1  0
M  END
>  <sample_id>  (11)
train::O=C(CCC1CCCN(Cc2ccc3c(c2)CCO3)C1)NCc1ccc(F)c(F)c1__gen0001

>  <partition>  (11)
BAT_EXTERNAL_CONFIRM

>  <method>  (11)
BA_seed193

>  <candidate>  (11)
primary

$$$$
train::O=C(CCC1CCCN(Cc2ccc3c(c2)CCO3)C1)NCc1ccc(F)c(F)c1__gen0002
     RDKit          3D

 58 61  0  0  0  0  0  0  0  0999 V2000
    0.1082   -1.7856   -1.2920 O   0  0  0  0  0  0  0  0  0  0  0  0
   -0.6850   -0.9574   -1.6900 C   0  0  0  0  0  0  0  0  0  1  0  0
   -2.0104   -1.0625   -1.4718 N   0  0  0  0  0  0  0  0  0  2  0  0
   -2.6342   -0.3326   -1.7748 H   0  0  0  0  0  0  0  0  0  3  0  0
   -2.6193   -2.2800   -0.9634 C   0  0  0  0  0  0  0  0  0  4  0  0
   -3.5887   -2.1240    0.1754 C   0  0  0  0  0  0  0  0  0  5  0  0
   -3.9994   -0.8736    0.6313 C   0  0  0  0  0  0  0  0  0  6  0  0
   -3.6146    0.0378    0.2066 H   0  0  0  0  0  0  0  0  0 15  0  0
   -4.8922   -0.7843    1.6780 C   0  0  0  0  0  0  0  0  0  7  0  0
   -5.2791    0.4246    2.1069 F   0  0  0  0  0  0  0  0  0 14  0  0
   -5.3903   -1.9242    2.2859 C   0  0  0  0  0  0  0  0  0  8  0  0
   -6.2751   -1.8339    3.2921 F   0  0  0  0  0  0  0  0  0 13  0  0
   -4.9787   -3.1658    1.8401 C   0  0  0  0  0  0  0  0  0  9  0  0
   -5.3830   -4.0449    2.3134 H   0  0  0  0  0  0  0  0  0 12  0  0
   -4.0797   -3.2645    0.7934 C   0  0  0  0  0  0  0  0  0 10  0  0
   -3.7601   -4.2303    0.4449 H   0  0  0  0  0  0  0  0  0 11  0  0
   -1.7806   -2.9167   -0.6756 H   0  0  0  0  0  0  0  0  0 16  0  0
   -3.1554   -2.7658   -1.7939 H   0  0  0  0  0  0  0  0  0 17  0  0
   -0.3141    0.2917   -2.4908 C   0  0  0  0  0  0  0  0  0 18  0  0
   -0.9883    0.3458   -3.3395 H   0  0  0  0  0  0  0  0  0 19  0  0
   -0.4685    1.1745   -1.8625 H   0  0  0  0  0  0  0  0  0 20  0  0
    1.1477    0.2368   -2.9300 C   0  0  0  0  0  0  0  0  0 21  0  0
    1.2702    0.9490   -3.7511 H   0  0  0  0  0  0  0  0  0 22  0  0
    1.3607   -0.7554   -3.3223 H   0  0  0  0  0  0  0  0  0 23  0  0
    2.1369    0.5453   -1.8083 C   0  0  2  0  0  0  0  0  0 24  0  0
    1.6143    0.4218   -0.8643 H   0  0  0  0  0  0  0  0  0 57  0  0
    2.6807    1.9822   -1.9220 C   0  0  0  0  0  0  0  0  0 25  0  0
    1.8609    2.7133   -1.9629 H   0  0  0  0  0  0  0  0  0 55  0  0
    3.2559    2.0800   -2.8398 H   0  0  0  0  0  0  0  0  0 56  0  0
    3.5434    2.3671   -0.8212 N   0  0  0  0  0  0  0  0  0 26  0  0
    2.8914    2.9439    0.3387 C   0  0  0  0  0  0  0  0  0 27  0  0
    1.6335    2.2523    0.8111 C   0  0  0  0  0  0  0  0  0 28  0  0
    0.3862    2.7277    0.3923 C   0  0  0  0  0  0  0  0  0 29  0  0
    0.3457    3.6094   -0.2247 H   0  0  0  0  0  0  0  0  0 43  0  0
   -0.7934    2.0790    0.7399 C   0  0  0  0  0  0  0  0  0 30  0  0
   -1.7570    2.4664    0.4347 H   0  0  0  0  0  0  0  0  0 42  0  0
   -0.6920    0.9390    1.5224 C   0  0  0  0  0  0  0  0  0 31  0  0
    0.5339    0.4610    1.9585 C   0  0  0  0  0  0  0  0  0 32  0  0
    1.6963    1.1204    1.6234 C   0  0  0  0  0  0  0  0  0 33  0  0
    2.6479    0.7478    1.9847 H   0  0  0  0  0  0  0  0  0 34  0  0
    0.3132   -0.7878    2.7337 C   0  0  0  0  0  0  0  0  0 35  0  0
    0.7432   -0.7706    3.7425 H   0  0  0  0  0  0  0  0  0 36  0  0
    0.7291   -1.6490    2.2313 H   0  0  0  0  0  0  0  0  0 37  0  0
   -1.2332   -0.8482    2.7687 C   0  0  0  0  0  0  0  0  0 38  0  0
   -1.4450   -0.8321    3.8465 H   0  0  0  0  0  0  0  0  0 39  0  0
   -1.8413   -1.6593    2.3343 H   0  0  0  0  0  0  0  0  0 40  0  0
   -1.7343    0.1938    1.9454 O   0  0  0  0  0  0  0  0  0 41  0  0
    3.6311    2.9735    1.1512 H   0  0  0  0  0  0  0  0  0 44  0  0
    2.6435    3.9820    0.0776 H   0  0  0  0  0  0  0  0  0 45  0  0
    4.6308    1.4218   -0.6189 C   0  0  0  0  0  0  0  0  0 46  0  0
    5.3139    1.5241   -1.4744 H   0  0  0  0  0  0  0  0  0 53  0  0
    5.1693    1.7066    0.2785 H   0  0  0  0  0  0  0  0  0 54  0  0
    4.1868   -0.0460   -0.5394 C   0  0  0  0  0  0  0  0  0 47  0  0
    5.0764   -0.6774   -0.4959 H   0  0  0  0  0  0  0  0  0 51  0  0
    3.6104   -0.2153    0.3629 H   0  0  0  0  0  0  0  0  0 52  0  0
    3.3337   -0.4009   -1.7572 C   0  0  0  0  0  0  0  0  0 48  0  0
    3.9241   -0.3039   -2.6740 H   0  0  0  0  0  0  0  0  0 49  0  0
    2.9736   -1.4267   -1.6858 H   0  0  0  0  0  0  0  0  0 50  0  0
  1  2  2  0
  2  3  1  0
  3  4  1  0
  3  5  1  0
  5  6  1  0
  6  7  4  0
  7  8  1  0
  7  9  4  0
  9 10  1  0
  9 11  4  0
 11 12  1  0
 11 13  4  0
 13 14  1  0
 13 15  4  0
 15 16  1  0
  5 17  1  0
  5 18  1  0
  2 19  1  0
 19 20  1  0
 19 21  1  0
 19 22  1  0
 22 23  1  0
 22 24  1  0
 22 25  1  0
 25 26  1  1
 25 27  1  0
 27 28  1  0
 27 29  1  0
 27 30  1  0
 30 31  1  0
 31 32  1  0
 32 33  4  0
 33 34  1  0
 33 35  4  0
 35 36  1  0
 35 37  4  0
 37 38  4  0
 38 39  4  0
 39 40  1  0
 38 41  1  0
 41 42  1  0
 41 43  1  0
 41 44  1  0
 44 45  1  0
 44 46  1  0
 44 47  1  0
 31 48  1  0
 31 49  1  0
 30 50  1  0
 50 51  1  0
 50 52  1  0
 50 53  1  0
 53 54  1  0
 53 55  1  0
 53 56  1  0
 56 57  1  0
 56 58  1  0
 15  6  4  0
 56 25  1  0
 39 32  4  0
 47 37  1  0
M  END
>  <sample_id>  (12)
train::O=C(CCC1CCCN(Cc2ccc3c(c2)CCO3)C1)NCc1ccc(F)c(F)c1__gen0002

>  <partition>  (12)
BAT_EXTERNAL_CONFIRM

>  <method>  (12)
BA_seed193

>  <candidate>  (12)
primary

$$$$
train::Cn1cc(C(=O)N_N=C_c2cccc(O)c2)ccc1=O__gen0000
     RDKit          3D

 33 34  0  0  0  0  0  0  0  0999 V2000
   -5.1929   -1.4613   -1.6170 C   0  0  0  0  0  0  0  0  0  0  0  0
   -3.9344   -0.8055   -1.3429 N   0  0  0  0  0  0  0  0  0  1  0  0
   -3.5398   -0.6114   -0.0801 C   0  0  0  0  0  0  0  0  0  2  0  0
   -4.1988   -0.9633    0.6963 H   0  0  0  0  0  0  0  0  0 29  0  0
   -2.3431   -0.0154    0.2365 C   0  0  0  0  0  0  0  0  0  3  0  0
   -2.0672    0.1491    1.6697 C   0  0  0  0  0  0  0  0  0 10  0  0
   -2.9330    0.0923    2.5190 O   0  0  0  0  0  0  0  0  0 11  0  0
   -0.7616    0.3514    2.0945 N   0  0  0  0  0  0  0  0  0 12  0  0
    0.3255    0.3134    1.3128 N   0  0  0  0  0  0  0  0  0 13  0  0
    1.4732    0.4565    1.8287 C   0  0  0  0  0  0  0  0  0 14  0  0
    2.6722    0.4071    1.0350 C   0  0  0  0  0  0  0  0  0 15  0  0
    2.6201    0.1145   -0.3288 C   0  0  0  0  0  0  0  0  0 16  0  0
    1.6727   -0.0882   -0.7877 H   0  0  0  0  0  0  0  0  0 26  0  0
    3.7965    0.0684   -1.0699 C   0  0  0  0  0  0  0  0  0 17  0  0
    3.7557   -0.1768   -2.1204 H   0  0  0  0  0  0  0  0  0 25  0  0
    5.0220    0.2995   -0.4736 C   0  0  0  0  0  0  0  0  0 18  0  0
    5.9379    0.2718   -1.0310 H   0  0  0  0  0  0  0  0  0 24  0  0
    5.0803    0.5965    0.8823 C   0  0  0  0  0  0  0  0  0 19  0  0
    6.2976    0.8319    1.4397 O   0  0  0  0  0  0  0  0  0 22  0  0
    6.2036    1.0242    2.3825 H   0  0  0  0  0  0  0  0  0 23  0  0
    3.9110    0.6525    1.6278 C   0  0  0  0  0  0  0  0  0 20  0  0
    3.9572    0.8863    2.6891 H   0  0  0  0  0  0  0  0  0 21  0  0
    1.5859    0.6593    2.9065 H   0  0  0  0  0  0  0  0  0 27  0  0
   -0.6645    0.4907    3.0929 H   0  0  0  0  0  0  0  0  0 28  0  0
   -1.5340    0.4505   -0.8158 C   0  0  0  0  0  0  0  0  0  4  0  0
   -0.6094    0.9637   -0.6010 H   0  0  0  0  0  0  0  0  0  9  0  0
   -1.9305    0.2646   -2.1087 C   0  0  0  0  0  0  0  0  0  5  0  0
   -1.3438    0.6172   -2.9378 H   0  0  0  0  0  0  0  0  0  8  0  0
   -3.1657   -0.3844   -2.4605 C   0  0  0  0  0  0  0  0  0  6  0  0
   -3.5639   -0.5853   -3.5875 O   0  0  0  0  0  0  0  0  0  7  0  0
   -6.0045   -0.9212   -1.1186 H   0  0  0  0  0  0  0  0  0 30  0  0
   -5.3414   -1.4652   -2.6936 H   0  0  0  0  0  0  0  0  0 31  0  0
   -5.1829   -2.4833   -1.2383 H   0  0  0  0  0  0  0  0  0 32  0  0
  1  2  1  0
  2  3  4  0
  3  4  1  0
  3  5  4  0
  5  6  1  0
  6  7  2  0
  6  8  1  0
  8  9  1  0
  9 10  2  0
 10 11  1  0
 11 12  4  0
 12 13  1  0
 12 14  4  0
 14 15  1  0
 14 16  4  0
 16 17  1  0
 16 18  4  0
 18 19  1  0
 19 20  1  0
 18 21  4  0
 21 22  1  0
 10 23  1  0
  8 24  1  0
  5 25  4  0
 25 26  1  0
 25 27  4  0
 27 28  1  0
 27 29  4  0
 29 30  2  0
  1 31  1  0
  1 32  1  0
  1 33  1  0
 29  2  4  0
 21 11  4  0
M  END
>  <sample_id>  (13)
train::Cn1cc(C(=O)N_N=C_c2cccc(O)c2)ccc1=O__gen0000

>  <partition>  (13)
BAT_EXTERNAL_CONFIRM

>  <method>  (13)
BA_seed193

>  <candidate>  (13)
primary

$$$$
train::Cn1cc(C(=O)N_N=C_c2cccc(O)c2)ccc1=O__gen0001
     RDKit          3D

 33 34  0  0  0  0  0  0  0  0999 V2000
   -4.9910    0.2355   -3.4663 C   0  0  0  0  0  0  0  0  0  0  0  0
   -3.5531    0.4399   -3.2944 N   0  0  0  0  0  0  0  0  0  1  0  0
   -3.0046    0.2815   -2.0846 C   0  0  0  0  0  0  0  0  0  2  0  0
   -3.6488   -0.0032   -1.2889 H   0  0  0  0  0  0  0  0  0 29  0  0
   -1.6614    0.4635   -1.8734 C   0  0  0  0  0  0  0  0  0  3  0  0
   -1.1888    0.2396   -0.4781 C   0  0  0  0  0  0  0  0  0 10  0  0
   -1.9665    0.1520    0.4577 O   0  0  0  0  0  0  0  0  0 11  0  0
    0.1635    0.1156   -0.3275 N   0  0  0  0  0  0  0  0  0 12  0  0
    0.7230   -0.0932    0.8672 N   0  0  0  0  0  0  0  0  0 13  0  0
    1.9882   -0.1928    0.9690 C   0  0  0  0  0  0  0  0  0 14  0  0
    2.6161   -0.4218    2.2403 C   0  0  0  0  0  0  0  0  0 15  0  0
    4.0091   -0.5367    2.3146 C   0  0  0  0  0  0  0  0  0 16  0  0
    4.6063   -0.4555    1.4177 H   0  0  0  0  0  0  0  0  0 26  0  0
    4.6265   -0.7436    3.5349 C   0  0  0  0  0  0  0  0  0 17  0  0
    5.6953   -0.8326    3.5987 H   0  0  0  0  0  0  0  0  0 25  0  0
    3.8702   -0.8445    4.6959 C   0  0  0  0  0  0  0  0  0 18  0  0
    4.3509   -1.0168    5.6474 H   0  0  0  0  0  0  0  0  0 24  0  0
    2.4759   -0.7374    4.6352 C   0  0  0  0  0  0  0  0  0 19  0  0
    1.7024   -0.8323    5.7361 O   0  0  0  0  0  0  0  0  0 22  0  0
    2.2464   -0.9700    6.5286 H   0  0  0  0  0  0  0  0  0 23  0  0
    1.8613   -0.5239    3.4072 C   0  0  0  0  0  0  0  0  0 20  0  0
    0.7898   -0.4336    3.3517 H   0  0  0  0  0  0  0  0  0 21  0  0
    2.6375   -0.1309    0.0871 H   0  0  0  0  0  0  0  0  0 27  0  0
    0.7637    0.1793   -1.1580 H   0  0  0  0  0  0  0  0  0 28  0  0
   -0.8562    0.8606   -2.9596 C   0  0  0  0  0  0  0  0  0  4  0  0
    0.1954    1.0823   -2.8357 H   0  0  0  0  0  0  0  0  0  9  0  0
   -1.4175    1.0444   -4.1932 C   0  0  0  0  0  0  0  0  0  5  0  0
   -0.8359    1.3600   -5.0439 H   0  0  0  0  0  0  0  0  0  8  0  0
   -2.8158    0.8188   -4.4306 C   0  0  0  0  0  0  0  0  0  6  0  0
   -3.3691    0.9402   -5.5120 O   0  0  0  0  0  0  0  0  0  7  0  0
   -5.2631   -0.7814   -3.1795 H   0  0  0  0  0  0  0  0  0 30  0  0
   -5.2098    0.3915   -4.5135 H   0  0  0  0  0  0  0  0  0 31  0  0
   -5.5397    0.9457   -2.8498 H   0  0  0  0  0  0  0  0  0 32  0  0
  1  2  1  0
  2  3  4  0
  3  4  1  0
  3  5  4  0
  5  6  1  0
  6  7  2  0
  6  8  1  0
  8  9  1  0
  9 10  2  0
 10 11  1  0
 11 12  4  0
 12 13  1  0
 12 14  4  0
 14 15  1  0
 14 16  4  0
 16 17  1  0
 16 18  4  0
 18 19  1  0
 19 20  1  0
 18 21  4  0
 21 22  1  0
 10 23  1  0
  8 24  1  0
  5 25  4  0
 25 26  1  0
 25 27  4  0
 27 28  1  0
 27 29  4  0
 29 30  2  0
  1 31  1  0
  1 32  1  0
  1 33  1  0
 29  2  4  0
 21 11  4  0
M  END
>  <sample_id>  (14)
train::Cn1cc(C(=O)N_N=C_c2cccc(O)c2)ccc1=O__gen0001

>  <partition>  (14)
BAT_EXTERNAL_CONFIRM

>  <method>  (14)
BA_seed193

>  <candidate>  (14)
primary

$$$$
train::Cn1cc(C(=O)N_N=C_c2cccc(O)c2)ccc1=O__gen0002
     RDKit          3D

 33 34  0  0  0  0  0  0  0  0999 V2000
    0.8688   -2.9110   -0.2791 C   0  0  0  0  0  0  0  0  0  0  0  0
    1.5376   -1.9625   -1.1202 N   0  0  0  0  0  0  0  0  0  1  0  0
    0.8860   -0.8557   -1.5218 C   0  0  0  0  0  0  0  0  0  2  0  0
   -0.1278   -0.7613   -1.1685 H   0  0  0  0  0  0  0  0  0 29  0  0
    1.4689    0.0824   -2.3320 C   0  0  0  0  0  0  0  0  0  3  0  0
    0.7752    1.3028   -2.8038 C   0  0  0  0  0  0  0  0  0 10  0  0
    1.0688    1.8725   -3.8379 O   0  0  0  0  0  0  0  0  0 11  0  0
   -0.2301    1.8194   -2.0132 N   0  0  0  0  0  0  0  0  0 12  0  0
   -0.5460    1.3938   -0.7994 N   0  0  0  0  0  0  0  0  0 13  0  0
   -1.4835    1.9523   -0.1397 C   0  0  0  0  0  0  0  0  0 14  0  0
   -1.8163    1.5006    1.2012 C   0  0  0  0  0  0  0  0  0 15  0  0
   -2.9885    1.9468    1.8112 C   0  0  0  0  0  0  0  0  0 16  0  0
   -3.6469    2.6333    1.2943 H   0  0  0  0  0  0  0  0  0 26  0  0
   -3.3152    1.5084    3.0806 C   0  0  0  0  0  0  0  0  0 17  0  0
   -4.2179    1.8400    3.5530 H   0  0  0  0  0  0  0  0  0 25  0  0
   -2.4874    0.6280    3.7580 C   0  0  0  0  0  0  0  0  0 18  0  0
   -2.7306    0.2635    4.7399 H   0  0  0  0  0  0  0  0  0 24  0  0
   -1.3164    0.1873    3.1476 C   0  0  0  0  0  0  0  0  0 19  0  0
   -0.5125   -0.6682    3.8594 O   0  0  0  0  0  0  0  0  0 22  0  0
    0.2794   -0.8551    3.3498 H   0  0  0  0  0  0  0  0  0 23  0  0
   -0.9741    0.6332    1.8799 C   0  0  0  0  0  0  0  0  0 20  0  0
   -0.0579    0.3104    1.4075 H   0  0  0  0  0  0  0  0  0 21  0  0
   -2.0647    2.7829   -0.5547 H   0  0  0  0  0  0  0  0  0 27  0  0
   -0.6967    2.6452   -2.4163 H   0  0  0  0  0  0  0  0  0 28  0  0
    2.7773   -0.1547   -2.7872 C   0  0  0  0  0  0  0  0  0  4  0  0
    3.2451    0.5612   -3.4448 H   0  0  0  0  0  0  0  0  0  9  0  0
    3.4546   -1.2701   -2.3901 C   0  0  0  0  0  0  0  0  0  5  0  0
    4.4608   -1.4697   -2.6985 H   0  0  0  0  0  0  0  0  0  8  0  0
    2.8734   -2.2393   -1.5160 C   0  0  0  0  0  0  0  0  0  6  0  0
    3.4157   -3.2515   -1.0978 O   0  0  0  0  0  0  0  0  0  7  0  0
    0.0223   -3.3657   -0.7944 H   0  0  0  0  0  0  0  0  0 30  0  0
    0.5015   -2.4151    0.6345 H   0  0  0  0  0  0  0  0  0 31  0  0
    1.5774   -3.6839   -0.0014 H   0  0  0  0  0  0  0  0  0 32  0  0
  1  2  1  0
  2  3  4  0
  3  4  1  0
  3  5  4  0
  5  6  1  0
  6  7  2  0
  6  8  1  0
  8  9  1  0
  9 10  2  0
 10 11  1  0
 11 12  4  0
 12 13  1  0
 12 14  4  0
 14 15  1  0
 14 16  4  0
 16 17  1  0
 16 18  4  0
 18 19  1  0
 19 20  1  0
 18 21  4  0
 21 22  1  0
 10 23  1  0
  8 24  1  0
  5 25  4  0
 25 26  1  0
 25 27  4  0
 27 28  1  0
 27 29  4  0
 29 30  2  0
  1 31  1  0
  1 32  1  0
  1 33  1  0
 29  2  4  0
 21 11  4  0
M  END
>  <sample_id>  (15)
train::Cn1cc(C(=O)N_N=C_c2cccc(O)c2)ccc1=O__gen0002

>  <partition>  (15)
BAT_EXTERNAL_CONFIRM

>  <method>  (15)
BA_seed193

>  <candidate>  (15)
primary

$$$$
train::[O-][n+]1onc2c1CCc1[nH]c(-c3ccccc3)nc1-2__gen0000
     RDKit          3D

 29 32  0  0  0  0  0  0  0  0999 V2000
    5.2467   -1.2897    2.5013 O   0  0  0  0  0  0  0  0  0  0  0  0
    4.3448   -0.6492    1.9842 N   0  0  0  0  0  0  0  0  0  1  0  0
    3.1464   -0.9678    1.5696 C   0  0  0  0  0  0  0  0  0  2  0  0
    2.5722    0.2065    1.0206 C   0  0  0  0  0  0  0  0  0  3  0  0
    3.4288    1.2250    1.1531 N   0  0  0  0  0  0  0  0  0  4  0  0
    4.5119    0.7080    1.7189 O   0  0  0  0  0  0  0  0  0  5  0  0
    1.2668    0.0822    0.4631 C   0  0  0  0  0  0  0  0  0  6  0  0
    0.7182   -1.1708    0.3014 C   0  0  0  0  0  0  0  0  0  7  0  0
   -0.5075   -0.9720   -0.2218 N   0  0  0  0  0  0  0  0  0  8  0  0
   -1.1748   -1.6876   -0.4738 H   0  0  0  0  0  0  0  0  0 22  0  0
   -0.6682    0.3749   -0.3872 C   0  0  0  0  0  0  0  0  0  9  0  0
   -1.8492    1.0040   -0.9355 C   0  0  0  0  0  0  0  0  0 11  0  0
   -1.8682    2.3864   -1.1140 C   0  0  0  0  0  0  0  0  0 12  0  0
   -0.9898    2.9392   -0.8308 H   0  0  0  0  0  0  0  0  0 21  0  0
   -2.9754    3.0150   -1.6367 C   0  0  0  0  0  0  0  0  0 13  0  0
   -2.9762    4.0872   -1.7789 H   0  0  0  0  0  0  0  0  0 20  0  0
   -4.0963    2.2792   -1.9796 C   0  0  0  0  0  0  0  0  0 14  0  0
   -4.9749    2.7714   -2.3949 H   0  0  0  0  0  0  0  0  0 19  0  0
   -4.0974    0.9013   -1.8034 C   0  0  0  0  0  0  0  0  0 15  0  0
   -4.9761    0.3287   -2.0820 H   0  0  0  0  0  0  0  0  0 18  0  0
   -2.9876    0.2679   -1.3003 C   0  0  0  0  0  0  0  0  0 16  0  0
   -3.0158   -0.8097   -1.1610 H   0  0  0  0  0  0  0  0  0 17  0  0
    0.3911    1.0519    0.0199 N   0  0  0  0  0  0  0  0  0 10  0  0
    1.3998   -2.4498    0.6048 C   0  0  0  0  0  0  0  0  0 23  0  0
    1.9054   -2.8098   -0.3005 H   0  0  0  0  0  0  0  0  0 24  0  0
    0.6776   -3.2288    0.8887 H   0  0  0  0  0  0  0  0  0 25  0  0
    2.4515   -2.2568    1.7349 C   0  0  0  0  0  0  0  0  0 26  0  0
    1.9400   -2.2486    2.7095 H   0  0  0  0  0  0  0  0  0 27  0  0
    3.1563   -3.0882    1.7306 H   0  0  0  0  0  0  0  0  0 28  0  0
  1  2  1  0
  2  3  4  0
  3  4  4  0
  4  5  4  0
  5  6  4  0
  4  7  1  0
  7  8  4  0
  8  9  4  0
  9 10  1  0
  9 11  4  0
 11 12  1  0
 12 13  4  0
 13 14  1  0
 13 15  4  0
 15 16  1  0
 15 17  4  0
 17 18  1  0
 17 19  4  0
 19 20  1  0
 19 21  4  0
 21 22  1  0
 11 23  4  0
  8 24  1  0
 24 25  1  0
 24 26  1  0
 24 27  1  0
 27 28  1  0
 27 29  1  0
  6  2  4  0
 23  7  4  0
 27  3  1  0
 21 12  4  0
M  CHG  2   1  -1   2   1
M  END
>  <sample_id>  (16)
train::[O-][n+]1onc2c1CCc1[nH]c(-c3ccccc3)nc1-2__gen0000

>  <partition>  (16)
BAT_EXTERNAL_CONFIRM

>  <method>  (16)
BA_seed193

>  <candidate>  (16)
primary

$$$$
train::[O-][n+]1onc2c1CCc1[nH]c(-c3ccccc3)nc1-2__gen0001
     RDKit          3D

 29 32  0  0  0  0  0  0  0  0999 V2000
   -5.8660    0.9419   -0.3188 O   0  0  0  0  0  0  0  0  0  0  0  0
   -4.6615    1.1846   -0.3109 N   0  0  0  0  0  0  0  0  0  1  0  0
   -3.6137    0.4027   -0.1500 C   0  0  0  0  0  0  0  0  0  2  0  0
   -2.4790    1.2268   -0.2773 C   0  0  0  0  0  0  0  0  0  3  0  0
   -2.8634    2.4899   -0.4795 N   0  0  0  0  0  0  0  0  0  4  0  0
   -4.1835    2.4580   -0.4885 O   0  0  0  0  0  0  0  0  0  5  0  0
   -1.1949    0.5839   -0.1851 C   0  0  0  0  0  0  0  0  0  6  0  0
   -1.1237   -0.8129   -0.2259 C   0  0  0  0  0  0  0  0  0  7  0  0
    0.1476   -1.1171   -0.0941 N   0  0  0  0  0  0  0  0  0  8  0  0
    0.5466   -2.0431   -0.0925 H   0  0  0  0  0  0  0  0  0 22  0  0
    0.8583    0.0645    0.0006 C   0  0  0  0  0  0  0  0  0  9  0  0
    2.2986    0.1661    0.1576 C   0  0  0  0  0  0  0  0  0 11  0  0
    2.8812    1.4162    0.2153 C   0  0  0  0  0  0  0  0  0 12  0  0
    2.2338    2.2792    0.1801 H   0  0  0  0  0  0  0  0  0 21  0  0
    4.2521    1.5617    0.3549 C   0  0  0  0  0  0  0  0  0 13  0  0
    4.6788    2.5448    0.4168 H   0  0  0  0  0  0  0  0  0 20  0  0
    5.0475    0.4375    0.4276 C   0  0  0  0  0  0  0  0  0 14  0  0
    6.1259    0.5432    0.5503 H   0  0  0  0  0  0  0  0  0 19  0  0
    4.4829   -0.8339    0.3551 C   0  0  0  0  0  0  0  0  0 15  0  0
    5.1145   -1.6978    0.4233 H   0  0  0  0  0  0  0  0  0 18  0  0
    3.1190   -0.9773    0.2256 C   0  0  0  0  0  0  0  0  0 16  0  0
    2.7085   -1.9662    0.1732 H   0  0  0  0  0  0  0  0  0 17  0  0
    0.0514    1.1041   -0.0519 N   0  0  0  0  0  0  0  0  0 10  0  0
   -2.3127   -1.7014   -0.4395 C   0  0  0  0  0  0  0  0  0 23  0  0
   -2.4431   -1.8488   -1.5163 H   0  0  0  0  0  0  0  0  0 24  0  0
   -2.1554   -2.6724    0.0205 H   0  0  0  0  0  0  0  0  0 25  0  0
   -3.5878   -1.0426    0.1461 C   0  0  0  0  0  0  0  0  0 26  0  0
   -3.5814   -1.1678    1.2343 H   0  0  0  0  0  0  0  0  0 27  0  0
   -4.4805   -1.5237   -0.2513 H   0  0  0  0  0  0  0  0  0 28  0  0
  1  2  1  0
  2  3  4  0
  3  4  4  0
  4  5  4  0
  5  6  4  0
  4  7  1  0
  7  8  4  0
  8  9  4  0
  9 10  1  0
  9 11  4  0
 11 12  1  0
 12 13  4  0
 13 14  1  0
 13 15  4  0
 15 16  1  0
 15 17  4  0
 17 18  1  0
 17 19  4  0
 19 20  1  0
 19 21  4  0
 21 22  1  0
 11 23  4  0
  8 24  1  0
 24 25  1  0
 24 26  1  0
 24 27  1  0
 27 28  1  0
 27 29  1  0
  6  2  4  0
 23  7  4  0
 27  3  1  0
 21 12  4  0
M  CHG  2   1  -1   2   1
M  END
>  <sample_id>  (17)
train::[O-][n+]1onc2c1CCc1[nH]c(-c3ccccc3)nc1-2__gen0001

>  <partition>  (17)
BAT_EXTERNAL_CONFIRM

>  <method>  (17)
BA_seed193

>  <candidate>  (17)
primary

$$$$
train::[O-][n+]1onc2c1CCc1[nH]c(-c3ccccc3)nc1-2__gen0002
     RDKit          3D

 29 32  0  0  0  0  0  0  0  0999 V2000
    2.3836   -1.7464    5.1656 O   0  0  0  0  0  0  0  0  0  0  0  0
    2.2607   -1.5775    3.9435 N   0  0  0  0  0  0  0  0  0  1  0  0
    1.3427   -0.9780    3.2474 C   0  0  0  0  0  0  0  0  0  2  0  0
    1.7195   -1.0966    1.8877 C   0  0  0  0  0  0  0  0  0  3  0  0
    2.8771   -1.7187    1.8019 N   0  0  0  0  0  0  0  0  0  4  0  0
    3.2253   -2.0436    3.0576 O   0  0  0  0  0  0  0  0  0  5  0  0
    0.8155   -0.5505    0.9337 C   0  0  0  0  0  0  0  0  0  6  0  0
   -0.4591   -0.1902    1.3206 C   0  0  0  0  0  0  0  0  0  7  0  0
   -1.0825    0.2446    0.2092 N   0  0  0  0  0  0  0  0  0  8  0  0
   -2.0343    0.5868    0.1625 H   0  0  0  0  0  0  0  0  0 22  0  0
   -0.1749    0.1566   -0.8330 C   0  0  0  0  0  0  0  0  0  9  0  0
   -0.4631    0.5550   -2.2051 C   0  0  0  0  0  0  0  0  0 11  0  0
   -1.6945    1.0943   -2.5843 C   0  0  0  0  0  0  0  0  0 12  0  0
   -2.4803    1.2389   -1.8658 H   0  0  0  0  0  0  0  0  0 21  0  0
   -1.9054    1.4343   -3.9086 C   0  0  0  0  0  0  0  0  0 13  0  0
   -2.8537    1.8584   -4.2025 H   0  0  0  0  0  0  0  0  0 20  0  0
   -0.9008    1.2602   -4.8563 C   0  0  0  0  0  0  0  0  0 14  0  0
   -1.0854    1.5268   -5.8904 H   0  0  0  0  0  0  0  0  0 19  0  0
    0.3101    0.7234   -4.4652 C   0  0  0  0  0  0  0  0  0 15  0  0
    1.0974    0.5964   -5.2062 H   0  0  0  0  0  0  0  0  0 18  0  0
    0.5423    0.3747   -3.1459 C   0  0  0  0  0  0  0  0  0 16  0  0
    1.4726   -0.0437   -2.8369 H   0  0  0  0  0  0  0  0  0 17  0  0
    0.9668   -0.3062   -0.4356 N   0  0  0  0  0  0  0  0  0 10  0  0
   -1.0055   -0.3547    2.7070 C   0  0  0  0  0  0  0  0  0 23  0  0
   -1.4883   -1.3212    2.7702 H   0  0  0  0  0  0  0  0  0 24  0  0
   -1.7654    0.4150    2.9148 H   0  0  0  0  0  0  0  0  0 25  0  0
    0.1480   -0.2502    3.7322 C   0  0  0  0  0  0  0  0  0 26  0  0
   -0.1773   -0.6742    4.6989 H   0  0  0  0  0  0  0  0  0 27  0  0
    0.4088    0.7864    3.8831 H   0  0  0  0  0  0  0  0  0 28  0  0
  1  2  1  0
  2  3  4  0
  3  4  4  0
  4  5  4  0
  5  6  4  0
  4  7  1  0
  7  8  4  0
  8  9  4  0
  9 10  1  0
  9 11  4  0
 11 12  1  0
 12 13  4  0
 13 14  1  0
 13 15  4  0
 15 16  1  0
 15 17  4  0
 17 18  1  0
 17 19  4  0
 19 20  1  0
 19 21  4  0
 21 22  1  0
 11 23  4  0
  8 24  1  0
 24 25  1  0
 24 26  1  0
 24 27  1  0
 27 28  1  0
 27 29  1  0
  6  2  4  0
 23  7  4  0
 27  3  1  0
 21 12  4  0
M  CHG  2   1  -1   2   1
M  END
>  <sample_id>  (18)
train::[O-][n+]1onc2c1CCc1[nH]c(-c3ccccc3)nc1-2__gen0002

>  <partition>  (18)
BAT_EXTERNAL_CONFIRM

>  <method>  (18)
BA_seed193

>  <candidate>  (18)
primary

$$$$
train::Cc1ccc2c(c1)N(CC(=O)NCc1cccnc1)C(=O)CO2__gen0000
     RDKit          3D

 40 42  0  0  0  0  0  0  0  0999 V2000
    2.5761    4.6332   -1.5917 C   0  0  0  0  0  0  0  0  0  0  0  0
    2.5204    3.6225   -0.4838 C   0  0  0  0  0  0  0  0  0  1  0  0
    3.0669    3.8786    0.7617 C   0  0  0  0  0  0  0  0  0  2  0  0
    3.5481    4.8321    0.9515 H   0  0  0  0  0  0  0  0  0 36  0  0
    2.9744    2.9492    1.7759 C   0  0  0  0  0  0  0  0  0  3  0  0
    3.3714    3.1578    2.7595 H   0  0  0  0  0  0  0  0  0 35  0  0
    2.3650    1.7318    1.5660 C   0  0  0  0  0  0  0  0  0  4  0  0
    1.8627    1.4199    0.2881 C   0  0  0  0  0  0  0  0  0  5  0  0
    1.9191    2.3854   -0.7120 C   0  0  0  0  0  0  0  0  0  6  0  0
    1.4671    2.2037   -1.6712 H   0  0  0  0  0  0  0  0  0  7  0  0
    1.3761    0.1331    0.0521 N   0  0  0  0  0  0  0  0  0  8  0  0
    1.2318   -0.3874   -1.2934 C   0  0  0  0  0  0  0  0  0 15  0  0
    1.6434   -1.3948   -1.3012 H   0  0  0  0  0  0  0  0  0 16  0  0
    1.7761    0.2422   -1.9989 H   0  0  0  0  0  0  0  0  0 17  0  0
   -0.2370   -0.4519   -1.6985 C   0  0  0  0  0  0  0  0  0 18  0  0
   -0.7722    0.4603   -2.2921 O   0  0  0  0  0  0  0  0  0 19  0  0
   -0.8345   -1.6136   -1.3950 N   0  0  0  0  0  0  0  0  0 20  0  0
   -0.3391   -2.2753   -0.8302 H   0  0  0  0  0  0  0  0  0 21  0  0
   -2.2327   -1.8898   -1.6741 C   0  0  0  0  0  0  0  0  0 22  0  0
   -2.9272   -2.5223   -0.4968 C   0  0  0  0  0  0  0  0  0 23  0  0
   -3.8819   -3.5161   -0.6617 C   0  0  0  0  0  0  0  0  0 24  0  0
   -4.1320   -3.8475   -1.6585 H   0  0  0  0  0  0  0  0  0 32  0  0
   -4.4796   -4.0561    0.4511 C   0  0  0  0  0  0  0  0  0 25  0  0
   -5.2259   -4.8296    0.3612 H   0  0  0  0  0  0  0  0  0 31  0  0
   -4.1111   -3.5947    1.6959 C   0  0  0  0  0  0  0  0  0 26  0  0
   -4.5406   -3.9876    2.6045 H   0  0  0  0  0  0  0  0  0 30  0  0
   -3.2039   -2.6536    1.8718 N   0  0  0  0  0  0  0  0  0 27  0  0
   -2.6356   -2.1293    0.7947 C   0  0  0  0  0  0  0  0  0 28  0  0
   -1.9189   -1.3412    0.9995 H   0  0  0  0  0  0  0  0  0 29  0  0
   -2.6866   -0.9310   -1.9428 H   0  0  0  0  0  0  0  0  0 33  0  0
   -2.2995   -2.5335   -2.5516 H   0  0  0  0  0  0  0  0  0 34  0  0
    1.1082   -0.7191    1.0815 C   0  0  0  0  0  0  0  0  0  9  0  0
    0.7669   -1.8650    0.9075 O   0  0  0  0  0  0  0  0  0 10  0  0
    1.2186   -0.0910    2.4643 C   0  0  0  0  0  0  0  0  0 11  0  0
    0.2675    0.3840    2.6934 H   0  0  0  0  0  0  0  0  0 12  0  0
    1.3893   -0.8986    3.1897 H   0  0  0  0  0  0  0  0  0 14  0  0
    2.2773    0.8350    2.5905 O   0  0  0  0  0  0  0  0  0 13  0  0
    1.5682    5.0224   -1.7729 H   0  0  0  0  0  0  0  0  0 37  0  0
    2.9321    4.1798   -2.5092 H   0  0  0  0  0  0  0  0  0 38  0  0
    3.2318    5.4579   -1.3250 H   0  0  0  0  0  0  0  0  0 39  0  0
  1  2  1  0
  2  3  4  0
  3  4  1  0
  3  5  4  0
  5  6  1  0
  5  7  4  0
  7  8  4  0
  8  9  4  0
  9 10  1  0
  8 11  1  0
 11 12  1  0
 12 13  1  0
 12 14  1  0
 12 15  1  0
 15 16  2  0
 15 17  1  0
 17 18  1  0
 17 19  1  0
 19 20  1  0
 20 21  4  0
 21 22  1  0
 21 23  4  0
 23 24  1  0
 23 25  4  0
 25 26  1  0
 25 27  4  0
 27 28  4  0
 28 29  1  0
 19 30  1  0
 19 31  1  0
 11 32  1  0
 32 33  2  0
 32 34  1  0
 34 35  1  0
 34 36  1  0
 34 37  1  0
  1 38  1  0
  1 39  1  0
  1 40  1  0
  9  2  4  0
 28 20  4  0
 37  7  1  0
M  END
>  <sample_id>  (19)
train::Cc1ccc2c(c1)N(CC(=O)NCc1cccnc1)C(=O)CO2__gen0000

>  <partition>  (19)
BAT_EXTERNAL_CONFIRM

>  <method>  (19)
BA_seed193

>  <candidate>  (19)
primary

$$$$
train::Cc1ccc2c(c1)N(CC(=O)NCc1cccnc1)C(=O)CO2__gen0001
     RDKit          3D

 40 42  0  0  0  0  0  0  0  0999 V2000
    0.7037   -4.3299   -1.2795 C   0  0  0  0  0  0  0  0  0  0  0  0
    1.0196   -3.0738   -0.5477 C   0  0  0  0  0  0  0  0  0  1  0  0
    2.2861   -2.5036   -0.5785 C   0  0  0  0  0  0  0  0  0  2  0  0
    3.0716   -2.9887   -1.1409 H   0  0  0  0  0  0  0  0  0 36  0  0
    2.5586   -1.3402    0.1068 C   0  0  0  0  0  0  0  0  0  3  0  0
    3.5457   -0.9000    0.0997 H   0  0  0  0  0  0  0  0  0 35  0  0
    1.5638   -0.7020    0.8412 C   0  0  0  0  0  0  0  0  0  4  0  0
    0.2670   -1.2435    0.8625 C   0  0  0  0  0  0  0  0  0  5  0  0
    0.0285   -2.4262    0.1708 C   0  0  0  0  0  0  0  0  0  6  0  0
   -0.9600   -2.8523    0.1622 H   0  0  0  0  0  0  0  0  0  7  0  0
   -0.7586   -0.5308    1.5108 N   0  0  0  0  0  0  0  0  0  8  0  0
   -2.1493   -0.8410    1.2612 C   0  0  0  0  0  0  0  0  0 15  0  0
   -2.3091   -1.9190    1.3160 H   0  0  0  0  0  0  0  0  0 16  0  0
   -2.7613   -0.3267    2.0093 H   0  0  0  0  0  0  0  0  0 17  0  0
   -2.4592   -0.3115   -0.1514 C   0  0  0  0  0  0  0  0  0 18  0  0
   -2.5579   -1.0200   -1.1215 O   0  0  0  0  0  0  0  0  0 19  0  0
   -2.5421    1.0424   -0.1644 N   0  0  0  0  0  0  0  0  0 20  0  0
   -2.3971    1.5286    0.7137 H   0  0  0  0  0  0  0  0  0 21  0  0
   -2.2309    1.8048   -1.3602 C   0  0  0  0  0  0  0  0  0 22  0  0
   -0.7976    2.2500   -1.2531 C   0  0  0  0  0  0  0  0  0 23  0  0
   -0.4507    3.4740   -0.6977 C   0  0  0  0  0  0  0  0  0 24  0  0
   -1.2390    4.1857   -0.4517 H   0  0  0  0  0  0  0  0  0 32  0  0
    0.8689    3.7948   -0.5020 C   0  0  0  0  0  0  0  0  0 25  0  0
    1.1687    4.7306   -0.0913 H   0  0  0  0  0  0  0  0  0 31  0  0
    1.8185    2.8288   -0.8362 C   0  0  0  0  0  0  0  0  0 26  0  0
    2.8716    3.0168   -0.7082 H   0  0  0  0  0  0  0  0  0 30  0  0
    1.5154    1.6558   -1.3539 N   0  0  0  0  0  0  0  0  0 27  0  0
    0.2378    1.3747   -1.5569 C   0  0  0  0  0  0  0  0  0 28  0  0
    0.0435    0.3872   -1.9555 H   0  0  0  0  0  0  0  0  0 29  0  0
   -2.9043    2.6618   -1.4369 H   0  0  0  0  0  0  0  0  0 33  0  0
   -2.3761    1.1443   -2.2221 H   0  0  0  0  0  0  0  0  0 34  0  0
   -0.4717    0.6284    2.1579 C   0  0  0  0  0  0  0  0  0  9  0  0
   -1.3198    1.4528    2.4367 O   0  0  0  0  0  0  0  0  0 10  0  0
    0.9948    0.8125    2.5242 C   0  0  0  0  0  0  0  0  0 11  0  0
    1.2015    0.1993    3.4037 H   0  0  0  0  0  0  0  0  0 12  0  0
    1.1944    1.8582    2.7636 H   0  0  0  0  0  0  0  0  0 14  0  0
    1.8696    0.4567    1.4809 O   0  0  0  0  0  0  0  0  0 13  0  0
   -0.1886   -4.2080   -1.8964 H   0  0  0  0  0  0  0  0  0 37  0  0
    0.5155   -5.1437   -0.5823 H   0  0  0  0  0  0  0  0  0 38  0  0
    1.5285   -4.6273   -1.9330 H   0  0  0  0  0  0  0  0  0 39  0  0
  1  2  1  0
  2  3  4  0
  3  4  1  0
  3  5  4  0
  5  6  1  0
  5  7  4  0
  7  8  4  0
  8  9  4  0
  9 10  1  0
  8 11  1  0
 11 12  1  0
 12 13  1  0
 12 14  1  0
 12 15  1  0
 15 16  2  0
 15 17  1  0
 17 18  1  0
 17 19  1  0
 19 20  1  0
 20 21  4  0
 21 22  1  0
 21 23  4  0
 23 24  1  0
 23 25  4  0
 25 26  1  0
 25 27  4  0
 27 28  4  0
 28 29  1  0
 19 30  1  0
 19 31  1  0
 11 32  1  0
 32 33  2  0
 32 34  1  0
 34 35  1  0
 34 36  1  0
 34 37  1  0
  1 38  1  0
  1 39  1  0
  1 40  1  0
  9  2  4  0
 28 20  4  0
 37  7  1  0
M  END
>  <sample_id>  (20)
train::Cc1ccc2c(c1)N(CC(=O)NCc1cccnc1)C(=O)CO2__gen0001

>  <partition>  (20)
BAT_EXTERNAL_CONFIRM

>  <method>  (20)
BA_seed193

>  <candidate>  (20)
primary

$$$$
train::Cc1ccc2c(c1)N(CC(=O)NCc1cccnc1)C(=O)CO2__gen0002
     RDKit          3D

 40 42  0  0  0  0  0  0  0  0999 V2000
   -2.4759   -0.3005    3.7197 C   0  0  0  0  0  0  0  0  0  0  0  0
   -1.5201    0.3531    2.7916 C   0  0  0  0  0  0  0  0  0  1  0  0
   -0.3223    0.8784    3.2670 C   0  0  0  0  0  0  0  0  0  2  0  0
   -0.0966    0.8076    4.3216 H   0  0  0  0  0  0  0  0  0 36  0  0
    0.5754    1.5007    2.4172 C   0  0  0  0  0  0  0  0  0  3  0  0
    1.5023    1.9205    2.7780 H   0  0  0  0  0  0  0  0  0 35  0  0
    0.2926    1.6076    1.0677 C   0  0  0  0  0  0  0  0  0  4  0  0
   -0.9069    1.0781    0.5576 C   0  0  0  0  0  0  0  0  0  5  0  0
   -1.7928    0.4613    1.4337 C   0  0  0  0  0  0  0  0  0  6  0  0
   -2.7008    0.0189    1.0626 H   0  0  0  0  0  0  0  0  0  7  0  0
   -1.1277    1.1311   -0.8317 N   0  0  0  0  0  0  0  0  0  8  0  0
   -2.1736    0.3408   -1.4617 C   0  0  0  0  0  0  0  0  0 15  0  0
   -3.1000    0.4096   -0.8745 H   0  0  0  0  0  0  0  0  0 16  0  0
   -2.3322    0.7230   -2.4684 H   0  0  0  0  0  0  0  0  0 17  0  0
   -1.6667   -1.1013   -1.5052 C   0  0  0  0  0  0  0  0  0 18  0  0
   -2.0282   -1.9671   -0.7365 O   0  0  0  0  0  0  0  0  0 19  0  0
   -0.6846   -1.2834   -2.4514 N   0  0  0  0  0  0  0  0  0 20  0  0
   -0.4321   -0.4706   -2.9941 H   0  0  0  0  0  0  0  0  0 21  0  0
    0.2758   -2.3393   -2.3333 C   0  0  0  0  0  0  0  0  0 22  0  0
    1.4653   -1.7906   -1.5770 C   0  0  0  0  0  0  0  0  0 23  0  0
    1.3752   -1.5357   -0.2146 C   0  0  0  0  0  0  0  0  0 24  0  0
    0.4946   -1.8362    0.3285 H   0  0  0  0  0  0  0  0  0 32  0  0
    2.4281   -0.9178    0.4329 C   0  0  0  0  0  0  0  0  0 25  0  0
    2.3867   -0.7126    1.4897 H   0  0  0  0  0  0  0  0  0 31  0  0
    3.5439   -0.5670   -0.3283 C   0  0  0  0  0  0  0  0  0 26  0  0
    4.3880   -0.0689    0.1334 H   0  0  0  0  0  0  0  0  0 30  0  0
    3.6410   -0.7934   -1.6216 N   0  0  0  0  0  0  0  0  0 27  0  0
    2.6233   -1.3826   -2.2286 C   0  0  0  0  0  0  0  0  0 28  0  0
    2.7471   -1.5387   -3.2918 H   0  0  0  0  0  0  0  0  0 29  0  0
   -0.1845   -3.1570   -1.7727 H   0  0  0  0  0  0  0  0  0 33  0  0
    0.5680   -2.6824   -3.3260 H   0  0  0  0  0  0  0  0  0 34  0  0
   -0.2305    1.7361   -1.6531 C   0  0  0  0  0  0  0  0  0  9  0  0
   -0.2306    1.5734   -2.8594 O   0  0  0  0  0  0  0  0  0 10  0  0
    0.7557    2.6697   -0.9700 C   0  0  0  0  0  0  0  0  0 11  0  0
    0.2645    3.6380   -0.8278 H   0  0  0  0  0  0  0  0  0 12  0  0
    1.6174    2.8107   -1.6248 H   0  0  0  0  0  0  0  0  0 14  0  0
    1.2223    2.1796    0.2623 O   0  0  0  0  0  0  0  0  0 13  0  0
   -1.9523   -0.9992    4.3721 H   0  0  0  0  0  0  0  0  0 37  0  0
   -2.9608    0.4445    4.3467 H   0  0  0  0  0  0  0  0  0 38  0  0
   -3.2479   -0.8385    3.1703 H   0  0  0  0  0  0  0  0  0 39  0  0
  1  2  1  0
  2  3  4  0
  3  4  1  0
  3  5  4  0
  5  6  1  0
  5  7  4  0
  7  8  4  0
  8  9  4  0
  9 10  1  0
  8 11  1  0
 11 12  1  0
 12 13  1  0
 12 14  1  0
 12 15  1  0
 15 16  2  0
 15 17  1  0
 17 18  1  0
 17 19  1  0
 19 20  1  0
 20 21  4  0
 21 22  1  0
 21 23  4  0
 23 24  1  0
 23 25  4  0
 25 26  1  0
 25 27  4  0
 27 28  4  0
 28 29  1  0
 19 30  1  0
 19 31  1  0
 11 32  1  0
 32 33  2  0
 32 34  1  0
 34 35  1  0
 34 36  1  0
 34 37  1  0
  1 38  1  0
  1 39  1  0
  1 40  1  0
  9  2  4  0
 28 20  4  0
 37  7  1  0
M  END
>  <sample_id>  (21)
train::Cc1ccc2c(c1)N(CC(=O)NCc1cccnc1)C(=O)CO2__gen0002

>  <partition>  (21)
BAT_EXTERNAL_CONFIRM

>  <method>  (21)
BA_seed193

>  <candidate>  (21)
primary

$$$$
train::O=C(CCN1C(=O)_C(=C\c2ccccc2)SC1=S)Nc1ccc(C(=O)O)cc1__gen0000
     RDKit          3D

 44 46  0  0  0  0  0  0  0  0999 V2000
    3.7728   -1.3531   -0.0702 O   0  0  0  0  0  0  0  0  0  0  0  0
    2.7479   -1.8731    0.3186 C   0  0  0  0  0  0  0  0  0  1  0  0
    1.7245   -1.2211    0.9451 N   0  0  0  0  0  0  0  0  0  2  0  0
    1.4395    0.1347    0.9630 C   0  0  0  0  0  0  0  0  0  3  0  0
    2.2210    1.0864    0.3093 C   0  0  0  0  0  0  0  0  0  4  0  0
    3.1225    0.7809   -0.1834 H   0  0  0  0  0  0  0  0  0 16  0  0
    1.8285    2.4094    0.2819 C   0  0  0  0  0  0  0  0  0  5  0  0
    2.4208    3.1309   -0.2510 H   0  0  0  0  0  0  0  0  0 15  0  0
    0.6395    2.8019    0.9115 C   0  0  0  0  0  0  0  0  0  6  0  0
    0.1595    4.2018    0.8516 C   0  0  0  0  0  0  0  0  0 11  0  0
   -0.9662    4.5351    1.1384 O   0  0  0  0  0  0  0  0  0 12  0  0
    1.0762    5.0564    0.4186 O   0  0  0  0  0  0  0  0  0 13  0  0
    0.7063    5.9600    0.3756 H   0  0  0  0  0  0  0  0  0 14  0  0
   -0.1142    1.8553    1.6013 C   0  0  0  0  0  0  0  0  0  7  0  0
   -1.0214    2.1788    2.1012 H   0  0  0  0  0  0  0  0  0 10  0  0
    0.2842    0.5285    1.6282 C   0  0  0  0  0  0  0  0  0  8  0  0
   -0.3344   -0.1942    2.1374 H   0  0  0  0  0  0  0  0  0  9  0  0
    0.9808   -1.7999    1.3104 H   0  0  0  0  0  0  0  0  0 17  0  0
    2.4194   -3.3453    0.0617 C   0  0  0  0  0  0  0  0  0 18  0  0
    1.9549   -3.4603   -1.3997 C   0  0  0  0  0  0  0  0  0 19  0  0
    1.2782   -2.2841   -1.8672 N   0  0  0  0  0  0  0  0  0 20  0  0
    1.8172   -1.5053   -2.8433 C   0  0  0  0  0  0  0  0  0 21  0  0
    3.1578   -1.8428   -3.7162 S   0  0  0  0  0  0  0  0  0 22  0  0
    0.8224   -0.0770   -3.1042 S   0  0  0  0  0  0  0  0  0 23  0  0
   -0.3149   -0.5611   -1.8525 C   0  0  0  0  0  0  0  0  0 24  0  0
   -1.2743    0.3187   -1.4532 C   0  0  0  0  0  0  0  0  0 25  0  0
   -2.3008    0.2576   -0.4429 C   0  0  0  0  0  0  0  0  0 26  0  0
   -2.8339   -0.9314    0.0447 C   0  0  0  0  0  0  0  0  0 27  0  0
   -2.5200   -1.8827   -0.3709 H   0  0  0  0  0  0  0  0  0 36  0  0
   -3.8053   -0.9056    1.0285 C   0  0  0  0  0  0  0  0  0 28  0  0
   -4.2201   -1.8341    1.3987 H   0  0  0  0  0  0  0  0  0 35  0  0
   -4.2713    0.3032    1.5287 C   0  0  0  0  0  0  0  0  0 29  0  0
   -5.0327    0.3205    2.3083 H   0  0  0  0  0  0  0  0  0 34  0  0
   -3.7612    1.4958    1.0274 C   0  0  0  0  0  0  0  0  0 30  0  0
   -4.1268    2.4400    1.4003 H   0  0  0  0  0  0  0  0  0 33  0  0
   -2.7975    1.4727    0.0436 C   0  0  0  0  0  0  0  0  0 31  0  0
   -2.4083    2.4012   -0.3486 H   0  0  0  0  0  0  0  0  0 32  0  0
   -1.2174    1.2731   -1.9642 H   0  0  0  0  0  0  0  0  0 37  0  0
    0.0996   -1.8453   -1.2805 C   0  0  0  0  0  0  0  0  0 38  0  0
   -0.4299   -2.4711   -0.3800 O   0  0  0  0  0  0  0  0  0 39  0  0
    2.8320   -3.5926   -2.0502 H   0  0  0  0  0  0  0  0  0 40  0  0
    1.2764   -4.3198   -1.5000 H   0  0  0  0  0  0  0  0  0 41  0  0
    3.3156   -3.9513    0.1828 H   0  0  0  0  0  0  0  0  0 42  0  0
    1.6534   -3.6917    0.7614 H   0  0  0  0  0  0  0  0  0 43  0  0
  1  2  2  0
  2  3  1  0
  3  4  1  0
  4  5  4  0
  5  6  1  0
  5  7  4  0
  7  8  1  0
  7  9  4  0
  9 10  1  0
 10 11  2  0
 10 12  1  0
 12 13  1  0
  9 14  4  0
 14 15  1  0
 14 16  4  0
 16 17  1  0
  3 18  1  0
  2 19  1  0
 19 20  1  0
 20 21  1  0
 21 22  1  0
 22 23  2  0
 22 24  1  0
 24 25  1  0
 25 26  2  0
 26 27  1  0
 27 28  4  0
 28 29  1  0
 28 30  4  0
 30 31  1  0
 30 32  4  0
 32 33  1  0
 32 34  4  0
 34 35  1  0
 34 36  4  0
 36 37  1  0
 26 38  1  0
 25 39  1  0
 39 40  2  0
 20 41  1  0
 20 42  1  0
 19 43  1  0
 19 44  1  0
 16  4  4  0
 39 21  1  0
 36 27  4  0
M  END
>  <sample_id>  (22)
train::O=C(CCN1C(=O)_C(=C\c2ccccc2)SC1=S)Nc1ccc(C(=O)O)cc1__gen0000

>  <partition>  (22)
BAT_EXTERNAL_CONFIRM

>  <method>  (22)
BA_seed193

>  <candidate>  (22)
primary

$$$$
train::O=C(CCN1C(=O)_C(=C\c2ccccc2)SC1=S)Nc1ccc(C(=O)O)cc1__gen0001
     RDKit          3D

 44 46  0  0  0  0  0  0  0  0999 V2000
   -1.5827   -0.5719    0.9442 O   0  0  0  0  0  0  0  0  0  0  0  0
   -1.7548   -1.7379    0.6758 C   0  0  0  0  0  0  0  0  0  1  0  0
   -1.0140   -2.7692    1.1682 N   0  0  0  0  0  0  0  0  0  2  0  0
    0.1010   -2.7199    2.0231 C   0  0  0  0  0  0  0  0  0  3  0  0
    0.5141   -1.5404    2.6465 C   0  0  0  0  0  0  0  0  0  4  0  0
   -0.0367   -0.6359    2.4824 H   0  0  0  0  0  0  0  0  0 16  0  0
    1.6118   -1.5595    3.4801 C   0  0  0  0  0  0  0  0  0  5  0  0
    1.9235   -0.6540    3.9720 H   0  0  0  0  0  0  0  0  0 15  0  0
    2.3250   -2.7421    3.6935 C   0  0  0  0  0  0  0  0  0  6  0  0
    3.4982   -2.7856    4.5826 C   0  0  0  0  0  0  0  0  0 11  0  0
    4.1358   -3.7878    4.8128 O   0  0  0  0  0  0  0  0  0 12  0  0
    3.8058   -1.6049    5.1369 O   0  0  0  0  0  0  0  0  0 13  0  0
    4.5826   -1.7109    5.7068 H   0  0  0  0  0  0  0  0  0 14  0  0
    1.9119   -3.9116    3.0566 C   0  0  0  0  0  0  0  0  0  7  0  0
    2.4671   -4.8186    3.2252 H   0  0  0  0  0  0  0  0  0 10  0  0
    0.8138   -3.8991    2.2306 C   0  0  0  0  0  0  0  0  0  8  0  0
    0.4980   -4.8067    1.7301 H   0  0  0  0  0  0  0  0  0  9  0  0
   -1.1902   -3.6912    0.7805 H   0  0  0  0  0  0  0  0  0 17  0  0
   -2.7879   -2.1813   -0.3499 C   0  0  0  0  0  0  0  0  0 18  0  0
   -2.1475   -2.2037   -1.7448 C   0  0  0  0  0  0  0  0  0 19  0  0
   -1.3506   -1.0169   -1.9342 N   0  0  0  0  0  0  0  0  0 20  0  0
   -0.0098   -1.0433   -1.7723 C   0  0  0  0  0  0  0  0  0 21  0  0
    0.9136   -2.3604   -1.5132 S   0  0  0  0  0  0  0  0  0 22  0  0
    0.6414    0.5949   -1.9030 S   0  0  0  0  0  0  0  0  0 23  0  0
   -0.9406    1.2768   -2.1341 C   0  0  0  0  0  0  0  0  0 24  0  0
   -1.3241    2.5494   -2.3346 C   0  0  0  0  0  0  0  0  0 25  0  0
   -0.5415    3.7718   -2.3775 C   0  0  0  0  0  0  0  0  0 26  0  0
    0.8513    3.7947   -2.2423 C   0  0  0  0  0  0  0  0  0 27  0  0
    1.3991    2.8783   -2.0796 H   0  0  0  0  0  0  0  0  0 36  0  0
    1.5414    4.9875   -2.3054 C   0  0  0  0  0  0  0  0  0 28  0  0
    2.6211    4.9935   -2.1865 H   0  0  0  0  0  0  0  0  0 35  0  0
    0.8673    6.1800   -2.4948 C   0  0  0  0  0  0  0  0  0 29  0  0
    1.4129    7.1089   -2.5535 H   0  0  0  0  0  0  0  0  0 34  0  0
   -0.5111    6.1747   -2.6399 C   0  0  0  0  0  0  0  0  0 30  0  0
   -1.0448    7.0984   -2.7991 H   0  0  0  0  0  0  0  0  0 33  0  0
   -1.2095    4.9838   -2.5917 C   0  0  0  0  0  0  0  0  0 31  0  0
   -2.2847    4.9759   -2.6892 H   0  0  0  0  0  0  0  0  0 32  0  0
   -2.3905    2.7047   -2.4459 H   0  0  0  0  0  0  0  0  0 37  0  0
   -1.9478    0.2143   -2.1489 C   0  0  0  0  0  0  0  0  0 38  0  0
   -3.1504    0.3383   -2.3056 O   0  0  0  0  0  0  0  0  0 39  0  0
   -1.4968   -3.0601   -1.8618 H   0  0  0  0  0  0  0  0  0 40  0  0
   -2.9257   -2.2229   -2.5107 H   0  0  0  0  0  0  0  0  0 41  0  0
   -3.2110   -3.1486   -0.0967 H   0  0  0  0  0  0  0  0  0 42  0  0
   -3.5839   -1.4416   -0.3324 H   0  0  0  0  0  0  0  0  0 43  0  0
  1  2  2  0
  2  3  1  0
  3  4  1  0
  4  5  4  0
  5  6  1  0
  5  7  4  0
  7  8  1  0
  7  9  4  0
  9 10  1  0
 10 11  2  0
 10 12  1  0
 12 13  1  0
  9 14  4  0
 14 15  1  0
 14 16  4  0
 16 17  1  0
  3 18  1  0
  2 19  1  0
 19 20  1  0
 20 21  1  0
 21 22  1  0
 22 23  2  0
 22 24  1  0
 24 25  1  0
 25 26  2  0
 26 27  1  0
 27 28  4  0
 28 29  1  0
 28 30  4  0
 30 31  1  0
 30 32  4  0
 32 33  1  0
 32 34  4  0
 34 35  1  0
 34 36  4  0
 36 37  1  0
 26 38  1  0
 25 39  1  0
 39 40  2  0
 20 41  1  0
 20 42  1  0
 19 43  1  0
 19 44  1  0
 16  4  4  0
 39 21  1  0
 36 27  4  0
M  END
>  <sample_id>  (23)
train::O=C(CCN1C(=O)_C(=C\c2ccccc2)SC1=S)Nc1ccc(C(=O)O)cc1__gen0001

>  <partition>  (23)
BAT_EXTERNAL_CONFIRM

>  <method>  (23)
BA_seed193

>  <candidate>  (23)
primary

$$$$
train::O=C(CCN1C(=O)_C(=C\c2ccccc2)SC1=S)Nc1ccc(C(=O)O)cc1__gen0002
     RDKit          3D

 44 46  0  0  0  0  0  0  0  0999 V2000
    1.0813   -3.6806    2.6089 O   0  0  0  0  0  0  0  0  0  0  0  0
    0.8497   -2.8648    1.7432 C   0  0  0  0  0  0  0  0  0  1  0  0
    0.5318   -1.5576    1.9741 N   0  0  0  0  0  0  0  0  0  2  0  0
    0.4022   -0.8793    3.1946 C   0  0  0  0  0  0  0  0  0  3  0  0
    0.1091    0.4828    3.1571 C   0  0  0  0  0  0  0  0  0  4  0  0
   -0.0341    0.9601    2.2013 H   0  0  0  0  0  0  0  0  0 16  0  0
   -0.0204    1.1988    4.3264 C   0  0  0  0  0  0  0  0  0  5  0  0
   -0.2449    2.2533    4.3081 H   0  0  0  0  0  0  0  0  0 15  0  0
    0.1518    0.5836    5.5553 C   0  0  0  0  0  0  0  0  0  6  0  0
    0.0065    1.3749    6.7850 C   0  0  0  0  0  0  0  0  0 11  0  0
   -0.1997    2.5675    6.8066 O   0  0  0  0  0  0  0  0  0 12  0  0
    0.1284    0.6699    7.9142 O   0  0  0  0  0  0  0  0  0 13  0  0
    0.0406    1.2513    8.6834 H   0  0  0  0  0  0  0  0  0 14  0  0
    0.4322   -0.7849    5.6017 C   0  0  0  0  0  0  0  0  0  7  0  0
    0.5485   -1.2817    6.5539 H   0  0  0  0  0  0  0  0  0 10  0  0
    0.5514   -1.5178    4.4303 C   0  0  0  0  0  0  0  0  0  8  0  0
    0.7984   -2.5723    4.4530 H   0  0  0  0  0  0  0  0  0  9  0  0
    0.3874   -0.9633    1.1698 H   0  0  0  0  0  0  0  0  0 17  0  0
    0.9218   -3.1860    0.2596 C   0  0  0  0  0  0  0  0  0 18  0  0
   -0.4394   -3.0175   -0.4444 C   0  0  0  0  0  0  0  0  0 19  0  0
   -0.3415   -2.1940   -1.6216 N   0  0  0  0  0  0  0  0  0 20  0  0
   -0.1800   -2.7028   -2.8702 C   0  0  0  0  0  0  0  0  0 21  0  0
   -0.0558   -4.2921   -3.2365 S   0  0  0  0  0  0  0  0  0 22  0  0
   -0.1376   -1.4059   -4.0740 S   0  0  0  0  0  0  0  0  0 23  0  0
   -0.3174   -0.1796   -2.8321 C   0  0  0  0  0  0  0  0  0 24  0  0
   -0.4496    1.1623   -2.9604 C   0  0  0  0  0  0  0  0  0 25  0  0
   -0.3889    2.0025   -4.1057 C   0  0  0  0  0  0  0  0  0 26  0  0
   -0.5592    3.3813   -3.9207 C   0  0  0  0  0  0  0  0  0 27  0  0
   -0.7266    3.7647   -2.9256 H   0  0  0  0  0  0  0  0  0 36  0  0
   -0.5296    4.2442   -4.9983 C   0  0  0  0  0  0  0  0  0 28  0  0
   -0.6737    5.3042   -4.8360 H   0  0  0  0  0  0  0  0  0 35  0  0
   -0.3430    3.7553   -6.2828 C   0  0  0  0  0  0  0  0  0 29  0  0
   -0.3072    4.4275   -7.1254 H   0  0  0  0  0  0  0  0  0 34  0  0
   -0.1653    2.3948   -6.4829 C   0  0  0  0  0  0  0  0  0 30  0  0
   -0.0097    1.9961   -7.4794 H   0  0  0  0  0  0  0  0  0 33  0  0
   -0.2040    1.5229   -5.4100 C   0  0  0  0  0  0  0  0  0 31  0  0
   -0.0642    0.4654   -5.5846 H   0  0  0  0  0  0  0  0  0 32  0  0
   -0.5758    1.6611   -2.0079 H   0  0  0  0  0  0  0  0  0 37  0  0
   -0.4027   -0.8190   -1.5197 C   0  0  0  0  0  0  0  0  0 38  0  0
   -0.4807   -0.2531   -0.4415 O   0  0  0  0  0  0  0  0  0 39  0  0
   -1.1749   -2.5342    0.2258 H   0  0  0  0  0  0  0  0  0 40  0  0
   -0.8326   -3.9957   -0.7594 H   0  0  0  0  0  0  0  0  0 41  0  0
    1.6580   -2.5265   -0.1962 H   0  0  0  0  0  0  0  0  0 42  0  0
    1.2594   -4.2160    0.1629 H   0  0  0  0  0  0  0  0  0 43  0  0
  1  2  2  0
  2  3  1  0
  3  4  1  0
  4  5  4  0
  5  6  1  0
  5  7  4  0
  7  8  1  0
  7  9  4  0
  9 10  1  0
 10 11  2  0
 10 12  1  0
 12 13  1  0
  9 14  4  0
 14 15  1  0
 14 16  4  0
 16 17  1  0
  3 18  1  0
  2 19  1  0
 19 20  1  0
 20 21  1  0
 21 22  1  0
 22 23  2  0
 22 24  1  0
 24 25  1  0
 25 26  2  0
 26 27  1  0
 27 28  4  0
 28 29  1  0
 28 30  4  0
 30 31  1  0
 30 32  4  0
 32 33  1  0
 32 34  4  0
 34 35  1  0
 34 36  4  0
 36 37  1  0
 26 38  1  0
 25 39  1  0
 39 40  2  0
 20 41  1  0
 20 42  1  0
 19 43  1  0
 19 44  1  0
 16  4  4  0
 39 21  1  0
 36 27  4  0
M  END
>  <sample_id>  (24)
train::O=C(CCN1C(=O)_C(=C\c2ccccc2)SC1=S)Nc1ccc(C(=O)O)cc1__gen0002

>  <partition>  (24)
BAT_EXTERNAL_CONFIRM

>  <method>  (24)
BA_seed193

>  <candidate>  (24)
primary

$$$$
train::CCOc1ccc(CCNC(=O)CCNC(=O)c2ccccc2Cl)cc1OCC__gen0000
     RDKit          3D

 56 57  0  0  0  0  0  0  0  0999 V2000
   -0.9328    3.9823    0.3424 C   0  0  0  0  0  0  0  0  0  0  0  0
   -2.1129    3.1500   -0.1765 C   0  0  0  0  0  0  0  0  0  1  0  0
   -3.0235    3.4343    0.3529 H   0  0  0  0  0  0  0  0  0  2  0  0
   -2.2602    3.3436   -1.2468 H   0  0  0  0  0  0  0  0  0  3  0  0
   -2.0130    1.7492    0.0351 O   0  0  0  0  0  0  0  0  0  4  0  0
   -1.2942    0.9817   -0.8127 C   0  0  0  0  0  0  0  0  0  5  0  0
   -0.3894    1.4574   -1.7559 C   0  0  0  0  0  0  0  0  0  6  0  0
   -0.2037    2.5078   -1.8747 H   0  0  0  0  0  0  0  0  0 52  0  0
    0.2916    0.5847   -2.5898 C   0  0  0  0  0  0  0  0  0  7  0  0
    0.9589    0.9711   -3.3371 H   0  0  0  0  0  0  0  0  0 51  0  0
    0.0480   -0.7738   -2.5302 C   0  0  0  0  0  0  0  0  0  8  0  0
    0.7501   -1.7357   -3.4662 C   0  0  0  0  0  0  0  0  0 20  0  0
    0.0208   -2.4447   -3.8689 H   0  0  0  0  0  0  0  0  0 21  0  0
    1.1718   -1.1775   -4.3070 H   0  0  0  0  0  0  0  0  0 22  0  0
    1.8610   -2.5249   -2.7803 C   0  0  0  0  0  0  0  0  0 23  0  0
    2.8930   -1.6697   -2.2454 N   0  0  0  0  0  0  0  0  0 24  0  0
    3.0789   -1.5128   -0.9194 C   0  0  0  0  0  0  0  0  0 25  0  0
    2.4729   -2.1469   -0.0879 O   0  0  0  0  0  0  0  0  0 26  0  0
    4.1493   -0.4882   -0.5305 C   0  0  0  0  0  0  0  0  0 27  0  0
    4.8220   -0.2757   -1.3669 H   0  0  0  0  0  0  0  0  0 28  0  0
    3.4611    0.7889   -0.0798 C   0  0  0  0  0  0  0  0  0 29  0  0
    2.5141    0.4684    0.9782 N   0  0  0  0  0  0  0  0  0 30  0  0
    1.5161    1.3121    1.3025 C   0  0  0  0  0  0  0  0  0 31  0  0
    1.4817    2.4519    0.8770 O   0  0  0  0  0  0  0  0  0 32  0  0
    0.4770    0.7235    2.1908 C   0  0  0  0  0  0  0  0  0 33  0  0
   -0.2000    1.5439    3.0872 C   0  0  0  0  0  0  0  0  0 34  0  0
    0.2530    3.1981    3.2690 Cl  0  0  0  0  0  0  0  0  0 43  0  0
   -1.2398    1.0383    3.8489 C   0  0  0  0  0  0  0  0  0 35  0  0
   -1.7538    1.7001    4.5217 H   0  0  0  0  0  0  0  0  0 42  0  0
   -1.6160   -0.2844    3.7195 C   0  0  0  0  0  0  0  0  0 36  0  0
   -2.4243   -0.6623    4.3256 H   0  0  0  0  0  0  0  0  0 41  0  0
   -0.9411   -1.1132    2.8498 C   0  0  0  0  0  0  0  0  0 37  0  0
   -1.2030   -2.1416    2.7710 H   0  0  0  0  0  0  0  0  0 40  0  0
    0.0984   -0.6176    2.0871 C   0  0  0  0  0  0  0  0  0 38  0  0
    0.5960   -1.2803    1.3891 H   0  0  0  0  0  0  0  0  0 39  0  0
    2.4879   -0.4885    1.2778 H   0  0  0  0  0  0  0  0  0 44  0  0
    4.2098    1.4933    0.3015 H   0  0  0  0  0  0  0  0  0 45  0  0
    2.9185    1.2658   -0.8931 H   0  0  0  0  0  0  0  0  0 46  0  0
    4.7412   -0.9024    0.2801 H   0  0  0  0  0  0  0  0  0 47  0  0
    3.3481   -1.0446   -2.8865 H   0  0  0  0  0  0  0  0  0 48  0  0
    1.4568   -3.0922   -1.9384 H   0  0  0  0  0  0  0  0  0 49  0  0
    2.3139   -3.2240   -3.4900 H   0  0  0  0  0  0  0  0  0 50  0  0
   -0.8556   -1.2644   -1.5923 C   0  0  0  0  0  0  0  0  0  9  0  0
   -1.0295   -2.3285   -1.5476 H   0  0  0  0  0  0  0  0  0 19  0  0
   -1.5383   -0.3997   -0.7405 C   0  0  0  0  0  0  0  0  0 10  0  0
   -2.4791   -0.7781    0.1473 O   0  0  0  0  0  0  0  0  0 11  0  0
   -2.8587   -2.1313    0.2347 C   0  0  0  0  0  0  0  0  0 12  0  0
   -4.0065   -2.2344    1.2282 C   0  0  0  0  0  0  0  0  0 13  0  0
   -4.8423   -1.6513    0.8738 H   0  0  0  0  0  0  0  0  0 14  0  0
   -4.3001   -3.2664    1.3501 H   0  0  0  0  0  0  0  0  0 15  0  0
   -3.6977   -1.8350    2.1949 H   0  0  0  0  0  0  0  0  0 16  0  0
   -2.0168   -2.7457    0.5608 H   0  0  0  0  0  0  0  0  0 17  0  0
   -3.1843   -2.4950   -0.7477 H   0  0  0  0  0  0  0  0  0 18  0  0
   -0.0042    3.6651   -0.1084 H   0  0  0  0  0  0  0  0  0 53  0  0
   -0.8722    3.8932    1.4235 H   0  0  0  0  0  0  0  0  0 54  0  0
   -1.0989    5.0260    0.1001 H   0  0  0  0  0  0  0  0  0 55  0  0
  1  2  1  0
  2  3  1  0
  2  4  1  0
  2  5  1  0
  5  6  1  0
  6  7  4  0
  7  8  1  0
  7  9  4  0
  9 10  1  0
  9 11  4  0
 11 12  1  0
 12 13  1  0
 12 14  1  0
 12 15  1  0
 15 16  1  0
 16 17  1  0
 17 18  2  0
 17 19  1  0
 19 20  1  0
 19 21  1  0
 21 22  1  0
 22 23  1  0
 23 24  2  0
 23 25  1  0
 25 26  4  0
 26 27  1  0
 26 28  4  0
 28 29  1  0
 28 30  4  0
 30 31  1  0
 30 32  4  0
 32 33  1  0
 32 34  4  0
 34 35  1  0
 22 36  1  0
 21 37  1  0
 21 38  1  0
 19 39  1  0
 16 40  1  0
 15 41  1  0
 15 42  1  0
 11 43  4  0
 43 44  1  0
 43 45  4  0
 45 46  1  0
 46 47  1  0
 47 48  1  0
 48 49  1  0
 48 50  1  0
 48 51  1  0
 47 52  1  0
 47 53  1  0
  1 54  1  0
  1 55  1  0
  1 56  1  0
 45  6  4  0
 34 25  4  0
M  END
>  <sample_id>  (25)
train::CCOc1ccc(CCNC(=O)CCNC(=O)c2ccccc2Cl)cc1OCC__gen0000

>  <partition>  (25)
BAT_EXTERNAL_CONFIRM

>  <method>  (25)
BA_seed193

>  <candidate>  (25)
primary

$$$$
train::CCOc1ccc(CCNC(=O)CCNC(=O)c2ccccc2Cl)cc1OCC__gen0001
     RDKit          3D

 56 57  0  0  0  0  0  0  0  0999 V2000
   -1.5561   -0.3842   -5.0263 C   0  0  0  0  0  0  0  0  0  0  0  0
   -0.4715   -0.7067   -4.0339 C   0  0  0  0  0  0  0  0  0  1  0  0
    0.5198   -0.7034   -4.5083 H   0  0  0  0  0  0  0  0  0  2  0  0
   -0.6379   -1.7146   -3.6195 H   0  0  0  0  0  0  0  0  0  3  0  0
   -0.5041    0.2490   -2.9969 O   0  0  0  0  0  0  0  0  0  4  0  0
    0.3770    0.1694   -1.9711 C   0  0  0  0  0  0  0  0  0  5  0  0
    1.3113   -0.8434   -1.7972 C   0  0  0  0  0  0  0  0  0  6  0  0
    1.4091   -1.6280   -2.5383 H   0  0  0  0  0  0  0  0  0 52  0  0
    2.1742   -0.8518   -0.7137 C   0  0  0  0  0  0  0  0  0  7  0  0
    2.8703   -1.6470   -0.6374 H   0  0  0  0  0  0  0  0  0 51  0  0
    2.0974    0.1540    0.2387 C   0  0  0  0  0  0  0  0  0  8  0  0
    2.9860    0.1711    1.4574 C   0  0  0  0  0  0  0  0  0 20  0  0
    3.9055    0.7074    1.2321 H   0  0  0  0  0  0  0  0  0 21  0  0
    2.4697    0.7207    2.2562 H   0  0  0  0  0  0  0  0  0 22  0  0
    3.3353   -1.2244    1.9865 C   0  0  0  0  0  0  0  0  0 23  0  0
    2.1614   -2.0094    2.2694 N   0  0  0  0  0  0  0  0  0 24  0  0
    1.8397   -3.1047    1.5726 C   0  0  0  0  0  0  0  0  0 25  0  0
    2.5729   -3.5951    0.7339 O   0  0  0  0  0  0  0  0  0 26  0  0
    0.5603   -3.8249    1.9541 C   0  0  0  0  0  0  0  0  0 27  0  0
    0.0679   -4.1213    1.0326 H   0  0  0  0  0  0  0  0  0 28  0  0
   -0.4489   -3.0880    2.8494 C   0  0  0  0  0  0  0  0  0 29  0  0
   -1.1565   -2.0203    2.1697 N   0  0  0  0  0  0  0  0  0 30  0  0
   -0.8944   -0.7186    2.3587 C   0  0  0  0  0  0  0  0  0 31  0  0
   -0.0460   -0.3284    3.1549 O   0  0  0  0  0  0  0  0  0 32  0  0
   -1.7769    0.2495    1.6464 C   0  0  0  0  0  0  0  0  0 33  0  0
   -2.2730    0.0911    0.3409 C   0  0  0  0  0  0  0  0  0 34  0  0
   -1.9093   -1.3030   -0.5886 Cl  0  0  0  0  0  0  0  0  0 43  0  0
   -3.1019    1.0656   -0.2060 C   0  0  0  0  0  0  0  0  0 35  0  0
   -3.4765    0.8966   -1.2041 H   0  0  0  0  0  0  0  0  0 42  0  0
   -3.4298    2.1803    0.5012 C   0  0  0  0  0  0  0  0  0 36  0  0
   -4.0679    2.9372    0.0671 H   0  0  0  0  0  0  0  0  0 41  0  0
   -2.9154    2.3673    1.7820 C   0  0  0  0  0  0  0  0  0 37  0  0
   -3.1600    3.2633    2.3338 H   0  0  0  0  0  0  0  0  0 40  0  0
   -2.0839    1.4237    2.3293 C   0  0  0  0  0  0  0  0  0 38  0  0
   -1.6814    1.5397    3.3152 H   0  0  0  0  0  0  0  0  0 39  0  0
   -1.7882   -2.2638    1.4241 H   0  0  0  0  0  0  0  0  0 44  0  0
    0.0363   -2.6643    3.7270 H   0  0  0  0  0  0  0  0  0 45  0  0
   -1.1979   -3.8082    3.1861 H   0  0  0  0  0  0  0  0  0 46  0  0
    0.8522   -4.7477    2.4465 H   0  0  0  0  0  0  0  0  0 47  0  0
    1.4873   -1.5440    2.8670 H   0  0  0  0  0  0  0  0  0 48  0  0
    3.9360   -1.1211    2.8933 H   0  0  0  0  0  0  0  0  0 49  0  0
    3.9234   -1.7816    1.2511 H   0  0  0  0  0  0  0  0  0 50  0  0
    1.1685    1.1704    0.0706 C   0  0  0  0  0  0  0  0  0  9  0  0
    1.1115    1.9578    0.8040 H   0  0  0  0  0  0  0  0  0 19  0  0
    0.3121    1.2025   -1.0181 C   0  0  0  0  0  0  0  0  0 10  0  0
   -0.6704    2.1244   -1.2188 O   0  0  0  0  0  0  0  0  0 11  0  0
   -0.4506    3.4639   -0.7766 C   0  0  0  0  0  0  0  0  0 12  0  0
    0.6327    4.1445   -1.5816 C   0  0  0  0  0  0  0  0  0 13  0  0
    1.5919    3.6402   -1.4437 H   0  0  0  0  0  0  0  0  0 14  0  0
    0.7226    5.1746   -1.2622 H   0  0  0  0  0  0  0  0  0 15  0  0
    0.3730    4.1246   -2.6372 H   0  0  0  0  0  0  0  0  0 16  0  0
   -1.4200    3.9440   -0.9335 H   0  0  0  0  0  0  0  0  0 17  0  0
   -0.2178    3.4740    0.2857 H   0  0  0  0  0  0  0  0  0 18  0  0
   -1.3944    0.6369   -5.4254 H   0  0  0  0  0  0  0  0  0 53  0  0
   -1.5490   -1.0858   -5.8476 H   0  0  0  0  0  0  0  0  0 54  0  0
   -2.5257   -0.4097   -4.5515 H   0  0  0  0  0  0  0  0  0 55  0  0
  1  2  1  0
  2  3  1  0
  2  4  1  0
  2  5  1  0
  5  6  1  0
  6  7  4  0
  7  8  1  0
  7  9  4  0
  9 10  1  0
  9 11  4  0
 11 12  1  0
 12 13  1  0
 12 14  1  0
 12 15  1  0
 15 16  1  0
 16 17  1  0
 17 18  2  0
 17 19  1  0
 19 20  1  0
 19 21  1  0
 21 22  1  0
 22 23  1  0
 23 24  2  0
 23 25  1  0
 25 26  4  0
 26 27  1  0
 26 28  4  0
 28 29  1  0
 28 30  4  0
 30 31  1  0
 30 32  4  0
 32 33  1  0
 32 34  4  0
 34 35  1  0
 22 36  1  0
 21 37  1  0
 21 38  1  0
 19 39  1  0
 16 40  1  0
 15 41  1  0
 15 42  1  0
 11 43  4  0
 43 44  1  0
 43 45  4  0
 45 46  1  0
 46 47  1  0
 47 48  1  0
 48 49  1  0
 48 50  1  0
 48 51  1  0
 47 52  1  0
 47 53  1  0
  1 54  1  0
  1 55  1  0
  1 56  1  0
 45  6  4  0
 34 25  4  0
M  END
>  <sample_id>  (26)
train::CCOc1ccc(CCNC(=O)CCNC(=O)c2ccccc2Cl)cc1OCC__gen0001

>  <partition>  (26)
BAT_EXTERNAL_CONFIRM

>  <method>  (26)
BA_seed193

>  <candidate>  (26)
primary

$$$$
train::CCOc1ccc(CCNC(=O)CCNC(=O)c2ccccc2Cl)cc1OCC__gen0002
     RDKit          3D

 56 57  0  0  0  0  0  0  0  0999 V2000
    3.0738   -2.7175    2.8160 C   0  0  0  0  0  0  0  0  0  0  0  0
    2.0314   -2.9451    1.7215 C   0  0  0  0  0  0  0  0  0  1  0  0
    1.0502   -3.1405    2.1508 H   0  0  0  0  0  0  0  0  0  2  0  0
    2.3209   -3.7876    1.0901 H   0  0  0  0  0  0  0  0  0  3  0  0
    1.9777   -1.8550    0.8040 O   0  0  0  0  0  0  0  0  0  4  0  0
    1.3785   -0.6890    1.1667 C   0  0  0  0  0  0  0  0  0  5  0  0
    0.6855   -0.4741    2.3460 C   0  0  0  0  0  0  0  0  0  6  0  0
    0.5637   -1.2608    3.0688 H   0  0  0  0  0  0  0  0  0 52  0  0
    0.1004    0.7580    2.6021 C   0  0  0  0  0  0  0  0  0  7  0  0
   -0.4228    0.9104    3.5371 H   0  0  0  0  0  0  0  0  0 51  0  0
    0.2465    1.8124    1.7069 C   0  0  0  0  0  0  0  0  0  8  0  0
   -0.2921    3.1858    2.0426 C   0  0  0  0  0  0  0  0  0 20  0  0
    0.0898    3.9187    1.3297 H   0  0  0  0  0  0  0  0  0 21  0  0
    0.0409    3.4505    3.0422 H   0  0  0  0  0  0  0  0  0 22  0  0
   -1.8283    3.2456    2.0396 C   0  0  0  0  0  0  0  0  0 23  0  0
   -2.3893    3.2073    0.7168 N   0  0  0  0  0  0  0  0  0 24  0  0
   -3.1718    2.2231    0.2680 C   0  0  0  0  0  0  0  0  0 25  0  0
   -3.4969    1.2417    0.9264 O   0  0  0  0  0  0  0  0  0 26  0  0
   -3.6669    2.3801   -1.1663 C   0  0  0  0  0  0  0  0  0 27  0  0
   -4.6544    1.9110   -1.2208 H   0  0  0  0  0  0  0  0  0 28  0  0
   -2.7165    1.6788   -2.1344 C   0  0  0  0  0  0  0  0  0 29  0  0
   -2.3833    0.3536   -1.6829 N   0  0  0  0  0  0  0  0  0 30  0  0
   -1.1722   -0.1771   -1.9383 C   0  0  0  0  0  0  0  0  0 31  0  0
   -0.3582    0.3953   -2.6396 O   0  0  0  0  0  0  0  0  0 32  0  0
   -0.9240   -1.5704   -1.4659 C   0  0  0  0  0  0  0  0  0 33  0  0
   -1.2399   -2.1111   -0.2173 C   0  0  0  0  0  0  0  0  0 34  0  0
   -2.0254   -1.1702    1.0096 Cl  0  0  0  0  0  0  0  0  0 43  0  0
   -0.9184   -3.4147    0.1073 C   0  0  0  0  0  0  0  0  0 35  0  0
   -1.2192   -3.7948    1.0703 H   0  0  0  0  0  0  0  0  0 42  0  0
   -0.2168   -4.1891   -0.7883 C   0  0  0  0  0  0  0  0  0 36  0  0
    0.0429   -5.2001   -0.5262 H   0  0  0  0  0  0  0  0  0 41  0  0
    0.1576   -3.6682   -2.0120 C   0  0  0  0  0  0  0  0  0 37  0  0
    0.7338   -4.2600   -2.6888 H   0  0  0  0  0  0  0  0  0 40  0  0
   -0.1772   -2.3714   -2.3364 C   0  0  0  0  0  0  0  0  0 38  0  0
    0.1075   -1.9424   -3.2815 H   0  0  0  0  0  0  0  0  0 39  0  0
   -3.0314   -0.0829   -1.0726 H   0  0  0  0  0  0  0  0  0 44  0  0
   -3.1831    1.6162   -3.1249 H   0  0  0  0  0  0  0  0  0 45  0  0
   -1.7984    2.2649   -2.2387 H   0  0  0  0  0  0  0  0  0 46  0  0
   -3.7689    3.4249   -1.4357 H   0  0  0  0  0  0  0  0  0 47  0  0
   -2.0586    3.9222    0.0655 H   0  0  0  0  0  0  0  0  0 48  0  0
   -2.2603    2.4054    2.5752 H   0  0  0  0  0  0  0  0  0 49  0  0
   -2.1593    4.1734    2.5249 H   0  0  0  0  0  0  0  0  0 50  0  0
    0.9446    1.6008    0.5205 C   0  0  0  0  0  0  0  0  0  9  0  0
    1.0410    2.4093   -0.1806 H   0  0  0  0  0  0  0  0  0 19  0  0
    1.5108    0.3603    0.2372 C   0  0  0  0  0  0  0  0  0 10  0  0
    2.2379    0.0773   -0.8487 O   0  0  0  0  0  0  0  0  0 11  0  0
    2.4988    1.0723   -1.8186 C   0  0  0  0  0  0  0  0  0 12  0  0
    3.3793    0.4908   -2.8984 C   0  0  0  0  0  0  0  0  0 13  0  0
    2.8596   -0.3330   -3.3872 H   0  0  0  0  0  0  0  0  0 14  0  0
    3.6387    1.2402   -3.6294 H   0  0  0  0  0  0  0  0  0 15  0  0
    4.3021    0.0957   -2.4409 H   0  0  0  0  0  0  0  0  0 16  0  0
    3.0091    1.9281   -1.3324 H   0  0  0  0  0  0  0  0  0 17  0  0
    1.5491    1.4175   -2.2449 H   0  0  0  0  0  0  0  0  0 18  0  0
    4.0444   -2.5468    2.3838 H   0  0  0  0  0  0  0  0  0 53  0  0
    3.1081   -3.6079    3.4517 H   0  0  0  0  0  0  0  0  0 54  0  0
    2.8091   -1.8623    3.4301 H   0  0  0  0  0  0  0  0  0 55  0  0
  1  2  1  0
  2  3  1  0
  2  4  1  0
  2  5  1  0
  5  6  1  0
  6  7  4  0
  7  8  1  0
  7  9  4  0
  9 10  1  0
  9 11  4  0
 11 12  1  0
 12 13  1  0
 12 14  1  0
 12 15  1  0
 15 16  1  0
 16 17  1  0
 17 18  2  0
 17 19  1  0
 19 20  1  0
 19 21  1  0
 21 22  1  0
 22 23  1  0
 23 24  2  0
 23 25  1  0
 25 26  4  0
 26 27  1  0
 26 28  4  0
 28 29  1  0
 28 30  4  0
 30 31  1  0
 30 32  4  0
 32 33  1  0
 32 34  4  0
 34 35  1  0
 22 36  1  0
 21 37  1  0
 21 38  1  0
 19 39  1  0
 16 40  1  0
 15 41  1  0
 15 42  1  0
 11 43  4  0
 43 44  1  0
 43 45  4  0
 45 46  1  0
 46 47  1  0
 47 48  1  0
 48 49  1  0
 48 50  1  0
 48 51  1  0
 47 52  1  0
 47 53  1  0
  1 54  1  0
  1 55  1  0
  1 56  1  0
 45  6  4  0
 34 25  4  0
M  END
>  <sample_id>  (27)
train::CCOc1ccc(CCNC(=O)CCNC(=O)c2ccccc2Cl)cc1OCC__gen0002

>  <partition>  (27)
BAT_EXTERNAL_CONFIRM

>  <method>  (27)
BA_seed193

>  <candidate>  (27)
primary

$$$$
train::Cc1cc(C)c(N=C2C(=O)Nc3ccccc32)c(C)c1__gen0000
     RDKit          3D

 36 38  0  0  0  0  0  0  0  0999 V2000
   -2.7050    2.6025    3.8063 C   0  0  0  0  0  0  0  0  0  0  0  0
   -1.8876    1.8105    2.8403 C   0  0  0  0  0  0  0  0  0  1  0  0
   -1.8910    0.4254    2.8853 C   0  0  0  0  0  0  0  0  0  2  0  0
   -2.5056   -0.0814    3.6181 H   0  0  0  0  0  0  0  0  0 32  0  0
   -1.1319   -0.3341    2.0121 C   0  0  0  0  0  0  0  0  0  3  0  0
   -1.1328   -1.8206    2.0458 C   0  0  0  0  0  0  0  0  0 28  0  0
   -1.7337   -2.1968    2.8734 H   0  0  0  0  0  0  0  0  0 29  0  0
   -1.5453   -2.2293    1.1180 H   0  0  0  0  0  0  0  0  0 30  0  0
   -0.1136   -2.1926    2.1407 H   0  0  0  0  0  0  0  0  0 31  0  0
   -0.3474    0.3211    1.0547 C   0  0  0  0  0  0  0  0  0  4  0  0
    0.4624   -0.4645    0.2577 N   0  0  0  0  0  0  0  0  0 12  0  0
    0.4803   -0.5059   -1.0194 C   0  0  0  0  0  0  0  0  0 13  0  0
    1.4121   -1.3200   -1.7879 C   0  0  0  0  0  0  0  0  0 14  0  0
    2.4735   -2.1248   -1.4033 C   0  0  0  0  0  0  0  0  0 15  0  0
    2.7308   -2.2108   -0.3502 H   0  0  0  0  0  0  0  0  0 27  0  0
    3.1879   -2.7810   -2.3828 C   0  0  0  0  0  0  0  0  0 16  0  0
    4.0295   -3.4016   -2.1148 H   0  0  0  0  0  0  0  0  0 26  0  0
    2.8497   -2.6386   -3.7263 C   0  0  0  0  0  0  0  0  0 17  0  0
    3.4319   -3.1559   -4.4752 H   0  0  0  0  0  0  0  0  0 25  0  0
    1.7917   -1.8363   -4.1271 C   0  0  0  0  0  0  0  0  0 18  0  0
    1.5389   -1.7345   -5.1650 H   0  0  0  0  0  0  0  0  0 24  0  0
    1.0672   -1.1857   -3.1420 C   0  0  0  0  0  0  0  0  0 19  0  0
    0.0117   -0.3128   -3.2599 N   0  0  0  0  0  0  0  0  0 20  0  0
   -0.4352   -0.0610   -4.1266 H   0  0  0  0  0  0  0  0  0 23  0  0
   -0.4414    0.1296   -2.0254 C   0  0  0  0  0  0  0  0  0 21  0  0
   -1.3739    0.8854   -1.8595 O   0  0  0  0  0  0  0  0  0 22  0  0
   -0.2906    1.7292    1.0173 C   0  0  0  0  0  0  0  0  0  5  0  0
    0.5717    2.4461    0.0362 C   0  0  0  0  0  0  0  0  0  8  0  0
    0.0028    2.6445   -0.8700 H   0  0  0  0  0  0  0  0  0  9  0  0
    1.4376    1.8320   -0.2449 H   0  0  0  0  0  0  0  0  0 10  0  0
    0.9262    3.3867    0.4488 H   0  0  0  0  0  0  0  0  0 11  0  0
   -1.0714    2.4389    1.9006 C   0  0  0  0  0  0  0  0  0  6  0  0
   -1.0462    3.5244    1.8602 H   0  0  0  0  0  0  0  0  0  7  0  0
   -2.8617    3.6195    3.4313 H   0  0  0  0  0  0  0  0  0 33  0  0
   -3.6803    2.1307    3.9604 H   0  0  0  0  0  0  0  0  0 34  0  0
   -2.2112    2.6616    4.7731 H   0  0  0  0  0  0  0  0  0 35  0  0
  1  2  1  0
  2  3  4  0
  3  4  1  0
  3  5  4  0
  5  6  1  0
  6  7  1  0
  6  8  1  0
  6  9  1  0
  5 10  4  0
 10 11  1  0
 11 12  2  0
 12 13  1  0
 13 14  4  0
 14 15  1  0
 14 16  4  0
 16 17  1  0
 16 18  4  0
 18 19  1  0
 18 20  4  0
 20 21  1  0
 20 22  4  0
 22 23  1  0
 23 24  1  0
 23 25  1  0
 25 26  2  0
 10 27  4  0
 27 28  1  0
 28 29  1  0
 28 30  1  0
 28 31  1  0
 27 32  4  0
 32 33  1  0
  1 34  1  0
  1 35  1  0
  1 36  1  0
 32  2  4  0
 25 12  1  0
 22 13  4  0
M  END
>  <sample_id>  (28)
train::Cc1cc(C)c(N=C2C(=O)Nc3ccccc32)c(C)c1__gen0000

>  <partition>  (28)
BAT_EXTERNAL_CONFIRM

>  <method>  (28)
BA_seed193

>  <candidate>  (28)
primary

$$$$
train::Cc1cc(C)c(N=C2C(=O)Nc3ccccc32)c(C)c1__gen0001
     RDKit          3D

 36 38  0  0  0  0  0  0  0  0999 V2000
    2.5962   -1.5417   -4.4264 C   0  0  0  0  0  0  0  0  0  0  0  0
    1.8139   -1.2518   -3.1761 C   0  0  0  0  0  0  0  0  0  1  0  0
    0.8091   -0.2995   -3.1685 C   0  0  0  0  0  0  0  0  0  2  0  0
    0.5962    0.2482   -4.0711 H   0  0  0  0  0  0  0  0  0 32  0  0
    0.0995    0.0055   -2.0187 C   0  0  0  0  0  0  0  0  0  3  0  0
   -0.9650    1.0386   -2.0408 C   0  0  0  0  0  0  0  0  0 28  0  0
   -1.3454    1.1987   -3.0527 H   0  0  0  0  0  0  0  0  0 29  0  0
   -0.5630    1.9916   -1.6885 H   0  0  0  0  0  0  0  0  0 30  0  0
   -1.7978    0.7562   -1.3922 H   0  0  0  0  0  0  0  0  0 31  0  0
    0.4051   -0.6867   -0.8205 C   0  0  0  0  0  0  0  0  0  4  0  0
   -0.3362   -0.5450    0.3150 N   0  0  0  0  0  0  0  0  0 12  0  0
   -0.4909    0.5163    1.0096 C   0  0  0  0  0  0  0  0  0 13  0  0
   -1.3823    0.6412    2.1578 C   0  0  0  0  0  0  0  0  0 14  0  0
   -2.3310   -0.2166    2.6929 C   0  0  0  0  0  0  0  0  0 15  0  0
   -2.4798   -1.1861    2.2427 H   0  0  0  0  0  0  0  0  0 27  0  0
   -3.0359    0.2003    3.8078 C   0  0  0  0  0  0  0  0  0 16  0  0
   -3.7724   -0.4532    4.2416 H   0  0  0  0  0  0  0  0  0 26  0  0
   -2.8186    1.4549    4.3547 C   0  0  0  0  0  0  0  0  0 17  0  0
   -3.3837    1.7614    5.2344 H   0  0  0  0  0  0  0  0  0 25  0  0
   -1.8833    2.3242    3.8207 C   0  0  0  0  0  0  0  0  0 18  0  0
   -1.7179    3.2957    4.2676 H   0  0  0  0  0  0  0  0  0 24  0  0
   -1.1719    1.8988    2.7138 C   0  0  0  0  0  0  0  0  0 19  0  0
   -0.2139    2.5793    1.9873 N   0  0  0  0  0  0  0  0  0 20  0  0
    0.1337    3.4973    2.2022 H   0  0  0  0  0  0  0  0  0 23  0  0
    0.2621    1.8178    0.9429 C   0  0  0  0  0  0  0  0  0 21  0  0
    1.1219    2.1579    0.1589 O   0  0  0  0  0  0  0  0  0 22  0  0
    1.4152   -1.6617   -0.8294 C   0  0  0  0  0  0  0  0  0  5  0  0
    1.7144   -2.3890    0.4424 C   0  0  0  0  0  0  0  0  0  8  0  0
    1.7570   -1.6841    1.2720 H   0  0  0  0  0  0  0  0  0  9  0  0
    0.9306   -3.1073    0.6626 H   0  0  0  0  0  0  0  0  0 10  0  0
    2.6643   -2.9190    0.3717 H   0  0  0  0  0  0  0  0  0 11  0  0
    2.1035   -1.9266   -1.9932 C   0  0  0  0  0  0  0  0  0  6  0  0
    2.8791   -2.6763   -1.9966 H   0  0  0  0  0  0  0  0  0  7  0  0
    3.5515   -1.0132   -4.4020 H   0  0  0  0  0  0  0  0  0 33  0  0
    2.0401   -1.2167   -5.3090 H   0  0  0  0  0  0  0  0  0 34  0  0
    2.7954   -2.6093   -4.5131 H   0  0  0  0  0  0  0  0  0 35  0  0
  1  2  1  0
  2  3  4  0
  3  4  1  0
  3  5  4  0
  5  6  1  0
  6  7  1  0
  6  8  1  0
  6  9  1  0
  5 10  4  0
 10 11  1  0
 11 12  2  0
 12 13  1  0
 13 14  4  0
 14 15  1  0
 14 16  4  0
 16 17  1  0
 16 18  4  0
 18 19  1  0
 18 20  4  0
 20 21  1  0
 20 22  4  0
 22 23  1  0
 23 24  1  0
 23 25  1  0
 25 26  2  0
 10 27  4  0
 27 28  1  0
 28 29  1  0
 28 30  1  0
 28 31  1  0
 27 32  4  0
 32 33  1  0
  1 34  1  0
  1 35  1  0
  1 36  1  0
 32  2  4  0
 25 12  1  0
 22 13  4  0
M  END
>  <sample_id>  (29)
train::Cc1cc(C)c(N=C2C(=O)Nc3ccccc32)c(C)c1__gen0001

>  <partition>  (29)
BAT_EXTERNAL_CONFIRM

>  <method>  (29)
BA_seed193

>  <candidate>  (29)
primary

$$$$
train::Cc1cc(C)c(N=C2C(=O)Nc3ccccc32)c(C)c1__gen0002
     RDKit          3D

 36 38  0  0  0  0  0  0  0  0999 V2000
   -0.0192   -3.2559    4.2392 C   0  0  0  0  0  0  0  0  0  0  0  0
    0.0073   -2.2354    3.1575 C   0  0  0  0  0  0  0  0  0  1  0  0
   -0.9738   -1.2528    3.0760 C   0  0  0  0  0  0  0  0  0  2  0  0
   -1.7662   -1.2440    3.8164 H   0  0  0  0  0  0  0  0  0 32  0  0
   -0.9767   -0.3132    2.0643 C   0  0  0  0  0  0  0  0  0  3  0  0
   -2.0345    0.7349    1.9756 C   0  0  0  0  0  0  0  0  0 28  0  0
   -1.5811    1.7235    1.9036 H   0  0  0  0  0  0  0  0  0 29  0  0
   -2.6175    0.5938    1.0645 H   0  0  0  0  0  0  0  0  0 30  0  0
   -2.6990    0.6952    2.8335 H   0  0  0  0  0  0  0  0  0 31  0  0
    0.0414   -0.3258    1.1023 C   0  0  0  0  0  0  0  0  0  4  0  0
    0.0684    0.6693    0.1912 N   0  0  0  0  0  0  0  0  0 12  0  0
   -0.0220    0.5919   -1.0765 C   0  0  0  0  0  0  0  0  0 13  0  0
    0.0166    1.7128   -2.0090 C   0  0  0  0  0  0  0  0  0 14  0  0
    0.2140    3.0733   -1.7970 C   0  0  0  0  0  0  0  0  0 15  0  0
    0.3467    3.4565   -0.7976 H   0  0  0  0  0  0  0  0  0 27  0  0
    0.2252    3.9108   -2.9082 C   0  0  0  0  0  0  0  0  0 16  0  0
    0.3683    4.9746   -2.7711 H   0  0  0  0  0  0  0  0  0 26  0  0
    0.0553    3.3999   -4.1881 C   0  0  0  0  0  0  0  0  0 17  0  0
    0.0700    4.0736   -5.0282 H   0  0  0  0  0  0  0  0  0 25  0  0
   -0.1322    2.0515   -4.4111 C   0  0  0  0  0  0  0  0  0 18  0  0
   -0.2587    1.6520   -5.4044 H   0  0  0  0  0  0  0  0  0 24  0  0
   -0.1420    1.2123   -3.3043 C   0  0  0  0  0  0  0  0  0 19  0  0
   -0.3339   -0.1588   -3.2342 N   0  0  0  0  0  0  0  0  0 20  0  0
   -0.4615   -0.7613   -4.0307 H   0  0  0  0  0  0  0  0  0 23  0  0
   -0.2674   -0.6211   -1.9403 C   0  0  0  0  0  0  0  0  0 21  0  0
   -0.4234   -1.7783   -1.6108 O   0  0  0  0  0  0  0  0  0 22  0  0
    1.0667   -1.3030    1.1829 C   0  0  0  0  0  0  0  0  0  5  0  0
    2.1784   -1.3467    0.1646 C   0  0  0  0  0  0  0  0  0  8  0  0
    3.0874   -1.7083    0.6245 H   0  0  0  0  0  0  0  0  0  9  0  0
    1.8967   -2.0415   -0.6263 H   0  0  0  0  0  0  0  0  0 10  0  0
    2.3371   -0.3574   -0.2655 H   0  0  0  0  0  0  0  0  0 11  0  0
    1.0199   -2.2381    2.2067 C   0  0  0  0  0  0  0  0  0  6  0  0
    1.8102   -2.9781    2.2680 H   0  0  0  0  0  0  0  0  0  7  0  0
    0.9886   -3.5775    4.5113 H   0  0  0  0  0  0  0  0  0 33  0  0
   -0.5600   -4.1445    3.8879 H   0  0  0  0  0  0  0  0  0 34  0  0
   -0.5293   -2.8843    5.1332 H   0  0  0  0  0  0  0  0  0 35  0  0
  1  2  1  0
  2  3  4  0
  3  4  1  0
  3  5  4  0
  5  6  1  0
  6  7  1  0
  6  8  1  0
  6  9  1  0
  5 10  4  0
 10 11  1  0
 11 12  2  0
 12 13  1  0
 13 14  4  0
 14 15  1  0
 14 16  4  0
 16 17  1  0
 16 18  4  0
 18 19  1  0
 18 20  4  0
 20 21  1  0
 20 22  4  0
 22 23  1  0
 23 24  1  0
 23 25  1  0
 25 26  2  0
 10 27  4  0
 27 28  1  0
 28 29  1  0
 28 30  1  0
 28 31  1  0
 27 32  4  0
 32 33  1  0
  1 34  1  0
  1 35  1  0
  1 36  1  0
 32  2  4  0
 25 12  1  0
 22 13  4  0
M  END
>  <sample_id>  (30)
train::Cc1cc(C)c(N=C2C(=O)Nc3ccccc32)c(C)c1__gen0002

>  <partition>  (30)
BAT_EXTERNAL_CONFIRM

>  <method>  (30)
BA_seed193

>  <candidate>  (30)
primary

$$$$
train::O=C(C[NH+]1C2=NCCN2c2ccccc21)c1ccc(Br)s1__gen0000
     RDKit          3D

 34 37  0  0  0  0  0  0  0  0999 V2000
   -1.5240   -2.5484   -0.2796 O   0  0  0  0  0  0  0  0  0  0  0  0
   -1.2484   -1.8457    0.6717 C   0  0  0  0  0  0  0  0  0  1  0  0
   -2.2771   -1.3194    1.5602 C   0  0  0  0  0  0  0  0  0  2  0  0
   -3.6045   -1.6422    1.5417 C   0  0  0  0  0  0  0  0  0  3  0  0
   -4.0094   -2.3657    0.8453 H   0  0  0  0  0  0  0  0  0  9  0  0
   -4.3769   -0.9390    2.4865 C   0  0  0  0  0  0  0  0  0  4  0  0
   -5.4229   -1.0603    2.6345 H   0  0  0  0  0  0  0  0  0  8  0  0
   -3.6165   -0.0972    3.2356 C   0  0  0  0  0  0  0  0  0  5  0  0
   -4.1861    1.0655    4.5949 Br  0  0  0  0  0  0  0  0  0  7  0  0
   -1.9358   -0.1113    2.7877 S   0  0  0  0  0  0  0  0  0  6  0  0
    0.2039   -1.4767    0.9975 C   0  0  0  0  0  0  0  0  0 10  0  0
    0.7094   -0.4875    0.0940 N   0  0  0  0  0  0  0  0  0 11  0  0
    0.0506    0.5501   -0.4733 C   0  0  0  0  0  0  0  0  0 12  0  0
    0.8519    1.2299   -1.2998 N   0  0  0  0  0  0  0  0  0 18  0  0
    2.1092    0.6279   -1.2994 C   0  0  0  0  0  0  0  0  0 19  0  0
    3.2829    0.9253   -1.9867 C   0  0  0  0  0  0  0  0  0 20  0  0
    3.3325    1.7552   -2.6782 H   0  0  0  0  0  0  0  0  0 28  0  0
    4.3727    0.1123   -1.7375 C   0  0  0  0  0  0  0  0  0 21  0  0
    5.3011    0.3150   -2.2458 H   0  0  0  0  0  0  0  0  0 27  0  0
    4.2964   -0.9512   -0.8451 C   0  0  0  0  0  0  0  0  0 22  0  0
    5.1721   -1.5481   -0.6775 H   0  0  0  0  0  0  0  0  0 26  0  0
    3.1368   -1.2545   -0.1659 C   0  0  0  0  0  0  0  0  0 23  0  0
    3.0910   -2.0829    0.5236 H   0  0  0  0  0  0  0  0  0 25  0  0
    2.0330   -0.4552   -0.4086 C   0  0  0  0  0  0  0  0  0 24  0  0
    0.1567    2.3317   -1.9218 C   0  0  0  0  0  0  0  0  0 17  0  0
    0.0557    2.1518   -2.9944 H   0  0  0  0  0  0  0  0  0 29  0  0
    0.6869    3.2688   -1.7666 H   0  0  0  0  0  0  0  0  0 30  0  0
   -1.2072    2.2895   -1.1907 C   0  0  0  0  0  0  0  0  0 14  0  0
   -1.3131    3.1581   -0.5326 H   0  0  0  0  0  0  0  0  0 15  0  0
   -2.0497    2.2695   -1.8804 H   0  0  0  0  0  0  0  0  0 16  0  0
   -1.1721    1.0707   -0.3619 N   0  0  0  0  0  0  0  0  0 13  0  0
   -2.0145    0.5748   -0.1408 H   0  0  0  0  0  0  0  0  0 31  0  0
    0.3026   -1.1292    2.0336 H   0  0  0  0  0  0  0  0  0 32  0  0
    0.8128   -2.3818    0.8800 H   0  0  0  0  0  0  0  0  0 33  0  0
  1  2  2  0
  2  3  1  0
  3  4  4  0
  4  5  1  0
  4  6  4  0
  6  7  1  0
  6  8  4  0
  8  9  1  0
  8 10  4  0
  2 11  1  0
 11 12  1  0
 12 13  4  0
 13 14  4  0
 14 15  4  0
 15 16  4  0
 16 17  1  0
 16 18  4  0
 18 19  1  0
 18 20  4  0
 20 21  1  0
 20 22  4  0
 22 23  1  0
 22 24  4  0
 14 25  1  0
 25 26  1  0
 25 27  1  0
 25 28  1  0
 28 29  1  0
 28 30  1  0
 28 31  1  0
 31 32  1  0
 11 33  1  0
 11 34  1  0
 10  3  4  0
 24 12  4  0
 31 13  1  0
 24 15  4  0
M  CHG  1  14   1
M  END
>  <sample_id>  (31)
train::O=C(C[NH+]1C2=NCCN2c2ccccc21)c1ccc(Br)s1__gen0000

>  <partition>  (31)
BAT_EXTERNAL_CONFIRM

>  <method>  (31)
BA_seed193

>  <candidate>  (31)
primary

$$$$
train::O=C(C[NH+]1C2=NCCN2c2ccccc21)c1ccc(Br)s1__gen0001
     RDKit          3D

 34 37  0  0  0  0  0  0  0  0999 V2000
   -0.0486    1.8752    2.3131 O   0  0  0  0  0  0  0  0  0  0  0  0
   -0.3013    2.0536    1.1355 C   0  0  0  0  0  0  0  0  0  1  0  0
    0.4645    2.9357    0.3114 C   0  0  0  0  0  0  0  0  0  2  0  0
    0.4297    3.1516   -1.0516 C   0  0  0  0  0  0  0  0  0  3  0  0
   -0.2327    2.6583   -1.7298 H   0  0  0  0  0  0  0  0  0  9  0  0
    1.4071    4.0741   -1.4621 C   0  0  0  0  0  0  0  0  0  4  0  0
    1.5595    4.3881   -2.4682 H   0  0  0  0  0  0  0  0  0  8  0  0
    2.1452    4.5505   -0.4138 C   0  0  0  0  0  0  0  0  0  5  0  0
    3.5420    5.8095   -0.5124 Br  0  0  0  0  0  0  0  0  0  7  0  0
    1.6840    3.8831    1.1100 S   0  0  0  0  0  0  0  0  0  6  0  0
   -1.4249    1.2146    0.4972 C   0  0  0  0  0  0  0  0  0 10  0  0
   -0.9368   -0.1226    0.3050 N   0  0  0  0  0  0  0  0  0 11  0  0
   -0.4022   -0.8853    1.2872 C   0  0  0  0  0  0  0  0  0 12  0  0
   -0.0306   -2.0752    0.7994 N   0  0  0  0  0  0  0  0  0 18  0  0
   -0.2676   -2.1162   -0.5540 C   0  0  0  0  0  0  0  0  0 19  0  0
   -0.0579   -3.0857   -1.5267 C   0  0  0  0  0  0  0  0  0 20  0  0
    0.3881   -4.0296   -1.2856 H   0  0  0  0  0  0  0  0  0 28  0  0
   -0.4501   -2.7708   -2.8087 C   0  0  0  0  0  0  0  0  0 21  0  0
   -0.3137   -3.4940   -3.5968 H   0  0  0  0  0  0  0  0  0 27  0  0
   -1.0460   -1.5498   -3.1198 C   0  0  0  0  0  0  0  0  0 22  0  0
   -1.3447   -1.3524   -4.1384 H   0  0  0  0  0  0  0  0  0 26  0  0
   -1.2505   -0.5763   -2.1651 C   0  0  0  0  0  0  0  0  0 23  0  0
   -1.7166    0.3581   -2.4140 H   0  0  0  0  0  0  0  0  0 25  0  0
   -0.8387   -0.8602   -0.8629 C   0  0  0  0  0  0  0  0  0 24  0  0
    0.5323   -2.9057    1.8401 C   0  0  0  0  0  0  0  0  0 17  0  0
   -0.0394   -3.8353    1.9474 H   0  0  0  0  0  0  0  0  0 29  0  0
    1.5718   -3.1655    1.6185 H   0  0  0  0  0  0  0  0  0 30  0  0
    0.4015   -2.0014    3.0871 C   0  0  0  0  0  0  0  0  0 14  0  0
   -0.2140   -2.4668    3.8586 H   0  0  0  0  0  0  0  0  0 15  0  0
    1.3796   -1.7707    3.5280 H   0  0  0  0  0  0  0  0  0 16  0  0
   -0.2470   -0.7862    2.6080 N   0  0  0  0  0  0  0  0  0 13  0  0
   -0.3344    0.0610    3.1389 H   0  0  0  0  0  0  0  0  0 31  0  0
   -1.7385    1.6267   -0.4603 H   0  0  0  0  0  0  0  0  0 32  0  0
   -2.2692    1.2093    1.1850 H   0  0  0  0  0  0  0  0  0 33  0  0
  1  2  2  0
  2  3  1  0
  3  4  4  0
  4  5  1  0
  4  6  4  0
  6  7  1  0
  6  8  4  0
  8  9  1  0
  8 10  4  0
  2 11  1  0
 11 12  1  0
 12 13  4  0
 13 14  4  0
 14 15  4  0
 15 16  4  0
 16 17  1  0
 16 18  4  0
 18 19  1  0
 18 20  4  0
 20 21  1  0
 20 22  4  0
 22 23  1  0
 22 24  4  0
 14 25  1  0
 25 26  1  0
 25 27  1  0
 25 28  1  0
 28 29  1  0
 28 30  1  0
 28 31  1  0
 31 32  1  0
 11 33  1  0
 11 34  1  0
 10  3  4  0
 24 12  4  0
 31 13  1  0
 24 15  4  0
M  CHG  1  14   1
M  END
>  <sample_id>  (32)
train::O=C(C[NH+]1C2=NCCN2c2ccccc21)c1ccc(Br)s1__gen0001

>  <partition>  (32)
BAT_EXTERNAL_CONFIRM

>  <method>  (32)
BA_seed193

>  <candidate>  (32)
primary

$$$$
train::O=C(C[NH+]1C2=NCCN2c2ccccc21)c1ccc(Br)s1__gen0002
     RDKit          3D

 34 37  0  0  0  0  0  0  0  0999 V2000
    1.3552   -0.6460   -1.6032 O   0  0  0  0  0  0  0  0  0  0  0  0
    0.6513   -1.5013   -1.1006 C   0  0  0  0  0  0  0  0  0  1  0  0
    1.0188   -2.8882   -1.0697 C   0  0  0  0  0  0  0  0  0  2  0  0
    2.1899   -3.4274   -1.5677 C   0  0  0  0  0  0  0  0  0  3  0  0
    2.9348   -2.8058   -2.0381 H   0  0  0  0  0  0  0  0  0  9  0  0
    2.2756   -4.8102   -1.4114 C   0  0  0  0  0  0  0  0  0  4  0  0
    3.1078   -5.4063   -1.7481 H   0  0  0  0  0  0  0  0  0  8  0  0
    1.1899   -5.3330   -0.7924 C   0  0  0  0  0  0  0  0  0  5  0  0
    0.8711   -7.1213   -0.3668 Br  0  0  0  0  0  0  0  0  0  7  0  0
    0.0094   -4.1351   -0.3729 S   0  0  0  0  0  0  0  0  0  6  0  0
   -0.7024   -1.1281   -0.4650 C   0  0  0  0  0  0  0  0  0 10  0  0
   -0.7299    0.2440   -0.0281 N   0  0  0  0  0  0  0  0  0 11  0  0
   -0.4036    1.3370   -0.7742 C   0  0  0  0  0  0  0  0  0 12  0  0
   -0.4162    2.4373   -0.0034 N   0  0  0  0  0  0  0  0  0 18  0  0
   -0.7629    2.0845    1.2830 C   0  0  0  0  0  0  0  0  0 19  0  0
   -0.9154    2.8199    2.4519 C   0  0  0  0  0  0  0  0  0 20  0  0
   -0.7736    3.8860    2.4582 H   0  0  0  0  0  0  0  0  0 28  0  0
   -1.2769    2.1271    3.5915 C   0  0  0  0  0  0  0  0  0 21  0  0
   -1.4019    2.6602    4.5197 H   0  0  0  0  0  0  0  0  0 27  0  0
   -1.4613    0.7476    3.5700 C   0  0  0  0  0  0  0  0  0 22  0  0
   -1.7428    0.2433    4.4829 H   0  0  0  0  0  0  0  0  0 26  0  0
   -1.3055    0.0039    2.4128 C   0  0  0  0  0  0  0  0  0 23  0  0
   -1.4718   -1.0591    2.4159 H   0  0  0  0  0  0  0  0  0 25  0  0
   -0.9411    0.6816    1.2562 C   0  0  0  0  0  0  0  0  0 24  0  0
   -0.0573    3.6056   -0.7822 C   0  0  0  0  0  0  0  0  0 17  0  0
    0.8146    4.0973   -0.3529 H   0  0  0  0  0  0  0  0  0 29  0  0
   -0.8883    4.3147   -0.7958 H   0  0  0  0  0  0  0  0  0 30  0  0
    0.2318    2.9910   -2.1721 C   0  0  0  0  0  0  0  0  0 14  0  0
   -0.3791    3.4750   -2.9463 H   0  0  0  0  0  0  0  0  0 15  0  0
    1.2882    3.1033   -2.4505 H   0  0  0  0  0  0  0  0  0 16  0  0
   -0.1242    1.5869   -2.0603 N   0  0  0  0  0  0  0  0  0 13  0  0
    0.1940    0.8882   -2.7007 H   0  0  0  0  0  0  0  0  0 31  0  0
   -1.4755   -1.2983   -1.2285 H   0  0  0  0  0  0  0  0  0 32  0  0
   -0.9029   -1.7743    0.3886 H   0  0  0  0  0  0  0  0  0 33  0  0
  1  2  2  0
  2  3  1  0
  3  4  4  0
  4  5  1  0
  4  6  4  0
  6  7  1  0
  6  8  4  0
  8  9  1  0
  8 10  4  0
  2 11  1  0
 11 12  1  0
 12 13  4  0
 13 14  4  0
 14 15  4  0
 15 16  4  0
 16 17  1  0
 16 18  4  0
 18 19  1  0
 18 20  4  0
 20 21  1  0
 20 22  4  0
 22 23  1  0
 22 24  4  0
 14 25  1  0
 25 26  1  0
 25 27  1  0
 25 28  1  0
 28 29  1  0
 28 30  1  0
 28 31  1  0
 31 32  1  0
 11 33  1  0
 11 34  1  0
 10  3  4  0
 24 12  4  0
 31 13  1  0
 24 15  4  0
M  CHG  1  14   1
M  END
>  <sample_id>  (33)
train::O=C(C[NH+]1C2=NCCN2c2ccccc21)c1ccc(Br)s1__gen0002

>  <partition>  (33)
BAT_EXTERNAL_CONFIRM

>  <method>  (33)
BA_seed193

>  <candidate>  (33)
primary

$$$$
train::CCN1CC(CN(C)Cc2nc(-c3cccs3)no2)CC1=O__gen0000
     RDKit          3D

 42 44  0  0  0  0  0  0  0  0999 V2000
    4.2609   -2.6707   -0.1317 C   0  0  0  0  0  0  0  0  0  0  0  0
    5.2555   -2.9947    0.1547 H   0  0  0  0  0  0  0  0  0  1  0  0
    4.3535   -1.8216   -0.8017 H   0  0  0  0  0  0  0  0  0  2  0  0
    3.7690   -3.4930   -0.6739 H   0  0  0  0  0  0  0  0  0  3  0  0
    3.4552   -2.3185    1.0940 C   0  0  0  0  0  0  0  0  0  4  0  0
    2.1088   -1.9028    0.7595 N   0  0  0  0  0  0  0  0  0  5  0  0
    1.0516   -2.7569    0.8462 C   0  0  0  0  0  0  0  0  0  6  0  0
    1.1123   -3.9268    1.1496 O   0  0  0  0  0  0  0  0  0  7  0  0
   -0.1844   -1.9647    0.4301 C   0  0  0  0  0  0  0  0  0  8  0  0
   -0.7896   -2.5877   -0.2174 H   0  0  0  0  0  0  0  0  0  9  0  0
   -0.7540   -1.7196    1.3110 H   0  0  0  0  0  0  0  0  0 10  0  0
    0.3620   -0.7106   -0.2730 C   0  0  2  0  0  0  0  0  0 11  0  0
   -0.2486    0.1612   -0.0412 H   0  0  0  0  0  0  0  0  0 12  0  0
    0.4701   -0.8613   -1.7897 C   0  0  0  0  0  0  0  0  0 13  0  0
   -0.7016   -0.6320   -2.6016 N   0  0  0  0  0  0  0  0  0 14  0  0
   -1.8018   -1.5474   -2.4680 C   0  0  0  0  0  0  0  0  0 15  0  0
   -2.3697   -1.4436   -1.5292 H   0  0  0  0  0  0  0  0  0 16  0  0
   -2.4897   -1.3792   -3.3025 H   0  0  0  0  0  0  0  0  0 17  0  0
   -1.4250   -2.5688   -2.5209 H   0  0  0  0  0  0  0  0  0 18  0  0
   -1.1335    0.7608   -2.7172 C   0  0  0  0  0  0  0  0  0 19  0  0
   -1.7519    1.3311   -1.4894 C   0  0  0  0  0  0  0  0  0 20  0  0
   -1.2313    2.2241   -0.6885 N   0  0  0  0  0  0  0  0  0 21  0  0
   -2.1788    2.3254    0.3103 C   0  0  0  0  0  0  0  0  0 22  0  0
   -2.0132    3.2018    1.4030 C   0  0  0  0  0  0  0  0  0 25  0  0
   -2.8511    3.4376    2.4535 C   0  0  0  0  0  0  0  0  0 26  0  0
   -3.7986    2.9335    2.5546 H   0  0  0  0  0  0  0  0  0 32  0  0
   -2.3632    4.3741    3.3797 C   0  0  0  0  0  0  0  0  0 27  0  0
   -2.8701    4.7030    4.2586 H   0  0  0  0  0  0  0  0  0 31  0  0
   -1.1398    4.8513    3.0181 C   0  0  0  0  0  0  0  0  0 28  0  0
   -0.5404    5.5844    3.5175 H   0  0  0  0  0  0  0  0  0 30  0  0
   -0.5685    4.1612    1.5390 S   0  0  0  0  0  0  0  0  0 29  0  0
   -3.2178    1.5472    0.0996 N   0  0  0  0  0  0  0  0  0 23  0  0
   -2.9327    0.9064   -1.0513 O   0  0  0  0  0  0  0  0  0 24  0  0
   -0.2651    1.3660   -2.9661 H   0  0  0  0  0  0  0  0  0 33  0  0
   -1.8710    0.8182   -3.5241 H   0  0  0  0  0  0  0  0  0 34  0  0
    1.2466   -0.1797   -2.1445 H   0  0  0  0  0  0  0  0  0 35  0  0
    0.8053   -1.8876   -2.0132 H   0  0  0  0  0  0  0  0  0 36  0  0
    1.7368   -0.5533    0.3666 C   0  0  0  0  0  0  0  0  0 37  0  0
    1.7226    0.0941    1.2432 H   0  0  0  0  0  0  0  0  0 38  0  0
    2.4758   -0.1732   -0.3396 H   0  0  0  0  0  0  0  0  0 39  0  0
    3.3609   -3.1861    1.7445 H   0  0  0  0  0  0  0  0  0 40  0  0
    3.9445   -1.5016    1.6510 H   0  0  0  0  0  0  0  0  0 41  0  0
  1  2  1  0
  1  3  1  0
  1  4  1  0
  1  5  1  0
  5  6  1  0
  6  7  1  0
  7  8  2  0
  7  9  1  0
  9 10  1  0
  9 11  1  0
  9 12  1  0
 12 13  1  6
 12 14  1  0
 14 15  1  0
 15 16  1  0
 16 17  1  0
 16 18  1  0
 16 19  1  0
 15 20  1  0
 20 21  1  0
 21 22  4  0
 22 23  4  0
 23 24  1  0
 24 25  4  0
 25 26  1  0
 25 27  4  0
 27 28  1  0
 27 29  4  0
 29 30  1  0
 29 31  4  0
 23 32  4  0
 32 33  4  0
 20 34  1  0
 20 35  1  0
 14 36  1  0
 14 37  1  0
 12 38  1  0
 38 39  1  0
 38 40  1  0
  5 41  1  0
  5 42  1  0
 38  6  1  0
 33 21  4  0
 31 24  4  0
M  END
>  <sample_id>  (34)
train::CCN1CC(CN(C)Cc2nc(-c3cccs3)no2)CC1=O__gen0000

>  <partition>  (34)
BAT_EXTERNAL_CONFIRM

>  <method>  (34)
BA_seed193

>  <candidate>  (34)
primary

$$$$
train::CCN1CC(CN(C)Cc2nc(-c3cccs3)no2)CC1=O__gen0001
     RDKit          3D

 42 44  0  0  0  0  0  0  0  0999 V2000
    1.4915   -3.2956    0.0853 C   0  0  0  0  0  0  0  0  0  0  0  0
    1.2699   -3.1155   -0.9669 H   0  0  0  0  0  0  0  0  0  1  0  0
    2.2800   -4.0440    0.1346 H   0  0  0  0  0  0  0  0  0  2  0  0
    1.8552   -2.3762    0.5460 H   0  0  0  0  0  0  0  0  0  3  0  0
    0.2493   -3.8056    0.8014 C   0  0  0  0  0  0  0  0  0  4  0  0
   -0.8430   -2.8920    0.7508 N   0  0  0  0  0  0  0  0  0  5  0  0
   -1.9855   -3.1243    0.0566 C   0  0  0  0  0  0  0  0  0  6  0  0
   -2.1744   -4.0916   -0.6376 O   0  0  0  0  0  0  0  0  0  7  0  0
   -2.9477   -1.9723    0.3157 C   0  0  0  0  0  0  0  0  0  8  0  0
   -3.3673   -1.6185   -0.6323 H   0  0  0  0  0  0  0  0  0  9  0  0
   -3.7525   -2.3333    0.9407 H   0  0  0  0  0  0  0  0  0 10  0  0
   -2.1174   -0.8807    1.0060 C   0  0  2  0  0  0  0  0  0 11  0  0
   -2.6597   -0.4305    1.8437 H   0  0  0  0  0  0  0  0  0 12  0  0
   -1.7793    0.2728    0.0621 C   0  0  0  0  0  0  0  0  0 13  0  0
   -1.5039   -0.1660   -1.3177 N   0  0  0  0  0  0  0  0  0 14  0  0
   -2.1609    0.6734   -2.2836 C   0  0  0  0  0  0  0  0  0 15  0  0
   -1.9217    1.7430   -2.1366 H   0  0  0  0  0  0  0  0  0 16  0  0
   -3.2369    0.5380   -2.2009 H   0  0  0  0  0  0  0  0  0 17  0  0
   -1.8527    0.3850   -3.2937 H   0  0  0  0  0  0  0  0  0 18  0  0
   -0.1024   -0.3890   -1.5769 C   0  0  0  0  0  0  0  0  0 19  0  0
    0.7289    0.8414   -1.4328 C   0  0  0  0  0  0  0  0  0 20  0  0
    1.1130    1.4087   -0.3282 N   0  0  0  0  0  0  0  0  0 21  0  0
    1.7684    2.5382   -0.7575 C   0  0  0  0  0  0  0  0  0 22  0  0
    2.3464    3.4810    0.1402 C   0  0  0  0  0  0  0  0  0 25  0  0
    2.3240    3.4600    1.5028 C   0  0  0  0  0  0  0  0  0 26  0  0
    1.8372    2.6791    2.0601 H   0  0  0  0  0  0  0  0  0 32  0  0
    3.0004    4.5462    2.0839 C   0  0  0  0  0  0  0  0  0 27  0  0
    3.0912    4.6944    3.1459 H   0  0  0  0  0  0  0  0  0 31  0  0
    3.5247    5.3821    1.1530 C   0  0  0  0  0  0  0  0  0 28  0  0
    4.0954    6.2802    1.3041 H   0  0  0  0  0  0  0  0  0 30  0  0
    3.2243    4.8594   -0.4558 S   0  0  0  0  0  0  0  0  0 29  0  0
    1.7729    2.6314   -2.0564 N   0  0  0  0  0  0  0  0  0 23  0  0
    1.0859    1.5527   -2.5121 O   0  0  0  0  0  0  0  0  0 24  0  0
    0.0116   -0.7595   -2.5948 H   0  0  0  0  0  0  0  0  0 33  0  0
    0.2592   -1.1397   -0.8685 H   0  0  0  0  0  0  0  0  0 34  0  0
   -2.6329    0.9606    0.0182 H   0  0  0  0  0  0  0  0  0 35  0  0
   -0.9342    0.8378    0.4934 H   0  0  0  0  0  0  0  0  0 36  0  0
   -0.8612   -1.6444    1.4960 C   0  0  0  0  0  0  0  0  0 37  0  0
    0.0581   -1.0767    1.3377 H   0  0  0  0  0  0  0  0  0 38  0  0
   -0.9421   -1.8693    2.5718 H   0  0  0  0  0  0  0  0  0 39  0  0
   -0.1095   -4.7367    0.3388 H   0  0  0  0  0  0  0  0  0 40  0  0
    0.4976   -4.0038    1.8634 H   0  0  0  0  0  0  0  0  0 41  0  0
  1  2  1  0
  1  3  1  0
  1  4  1  0
  1  5  1  0
  5  6  1  0
  6  7  1  0
  7  8  2  0
  7  9  1  0
  9 10  1  0
  9 11  1  0
  9 12  1  0
 12 13  1  1
 12 14  1  0
 14 15  1  0
 15 16  1  0
 16 17  1  0
 16 18  1  0
 16 19  1  0
 15 20  1  0
 20 21  1  0
 21 22  4  0
 22 23  4  0
 23 24  1  0
 24 25  4  0
 25 26  1  0
 25 27  4  0
 27 28  1  0
 27 29  4  0
 29 30  1  0
 29 31  4  0
 23 32  4  0
 32 33  4  0
 20 34  1  0
 20 35  1  0
 14 36  1  0
 14 37  1  0
 12 38  1  0
 38 39  1  0
 38 40  1  0
  5 41  1  0
  5 42  1  0
 38  6  1  0
 33 21  4  0
 31 24  4  0
M  END
>  <sample_id>  (35)
train::CCN1CC(CN(C)Cc2nc(-c3cccs3)no2)CC1=O__gen0001

>  <partition>  (35)
BAT_EXTERNAL_CONFIRM

>  <method>  (35)
BA_seed193

>  <candidate>  (35)
primary

$$$$
train::CCN1CC(CN(C)Cc2nc(-c3cccs3)no2)CC1=O__gen0002
     RDKit          3D

 42 44  0  0  0  0  0  0  0  0999 V2000
   -4.2828   -0.7916   -3.9520 C   0  0  0  0  0  0  0  0  0  0  0  0
   -3.9622   -1.8409   -3.9319 H   0  0  0  0  0  0  0  0  0  1  0  0
   -5.1869   -0.7122   -3.3564 H   0  0  0  0  0  0  0  0  0  2  0  0
   -4.5432   -0.5311   -4.9730 H   0  0  0  0  0  0  0  0  0  3  0  0
   -3.1869    0.1122   -3.4435 C   0  0  0  0  0  0  0  0  0  4  0  0
   -2.8271   -0.1829   -2.0843 N   0  0  0  0  0  0  0  0  0  5  0  0
   -3.3051    0.5057   -1.0085 C   0  0  0  0  0  0  0  0  0  6  0  0
   -4.0075    1.4842   -1.0601 O   0  0  0  0  0  0  0  0  0  7  0  0
   -2.7273   -0.1611    0.2379 C   0  0  0  0  0  0  0  0  0  8  0  0
   -2.3962    0.6037    0.9405 H   0  0  0  0  0  0  0  0  0  9  0  0
   -3.5115   -0.7449    0.7228 H   0  0  0  0  0  0  0  0  0 10  0  0
   -1.5930   -1.0457   -0.2846 C   0  0  2  0  0  0  0  0  0 11  0  0
   -1.4822   -1.9540    0.3038 H   0  0  0  0  0  0  0  0  0 12  0  0
   -0.2611   -0.2915   -0.2872 C   0  0  0  0  0  0  0  0  0 13  0  0
    0.7706   -1.0357   -1.0066 N   0  0  0  0  0  0  0  0  0 14  0  0
    1.3788   -0.2492   -2.0804 C   0  0  0  0  0  0  0  0  0 15  0  0
    1.9173    0.6433   -1.6817 H   0  0  0  0  0  0  0  0  0 16  0  0
    0.6091    0.0835   -2.7411 H   0  0  0  0  0  0  0  0  0 17  0  0
    2.0824   -0.8713   -2.6188 H   0  0  0  0  0  0  0  0  0 18  0  0
    1.7417   -1.6536   -0.1238 C   0  0  0  0  0  0  0  0  0 19  0  0
    2.4714   -0.6968    0.7394 C   0  0  0  0  0  0  0  0  0 20  0  0
    2.2288   -0.4189    1.9757 N   0  0  0  0  0  0  0  0  0 21  0  0
    3.1327    0.5514    2.2649 C   0  0  0  0  0  0  0  0  0 22  0  0
    3.2167    1.1788    3.5517 C   0  0  0  0  0  0  0  0  0 25  0  0
    4.0844    2.1584    3.9608 C   0  0  0  0  0  0  0  0  0 26  0  0
    4.8225    2.5826    3.3003 H   0  0  0  0  0  0  0  0  0 32  0  0
    3.8900    2.5321    5.3043 C   0  0  0  0  0  0  0  0  0 27  0  0
    4.4493    3.2963    5.8067 H   0  0  0  0  0  0  0  0  0 31  0  0
    2.8742    1.8375    5.8859 C   0  0  0  0  0  0  0  0  0 28  0  0
    2.5182    1.9081    6.9051 H   0  0  0  0  0  0  0  0  0 30  0  0
    2.1392    0.7011    4.8288 S   0  0  0  0  0  0  0  0  0 29  0  0
    3.8938    0.8635    1.2341 N   0  0  0  0  0  0  0  0  0 23  0  0
    3.4714    0.0419    0.2473 O   0  0  0  0  0  0  0  0  0 24  0  0
    2.4623   -2.1994   -0.7477 H   0  0  0  0  0  0  0  0  0 33  0  0
    1.2258   -2.3672    0.5246 H   0  0  0  0  0  0  0  0  0 34  0  0
    0.0247   -0.1196    0.7543 H   0  0  0  0  0  0  0  0  0 35  0  0
   -0.3889    0.7164   -0.7256 H   0  0  0  0  0  0  0  0  0 36  0  0
   -2.0531   -1.3586   -1.7129 C   0  0  0  0  0  0  0  0  0 37  0  0
   -1.2067   -1.4821   -2.3902 H   0  0  0  0  0  0  0  0  0 38  0  0
   -2.6823   -2.2468   -1.7501 H   0  0  0  0  0  0  0  0  0 39  0  0
   -3.5148    1.1447   -3.4628 H   0  0  0  0  0  0  0  0  0 40  0  0
   -2.2866    0.0100   -4.0656 H   0  0  0  0  0  0  0  0  0 41  0  0
  1  2  1  0
  1  3  1  0
  1  4  1  0
  1  5  1  0
  5  6  1  0
  6  7  1  0
  7  8  2  0
  7  9  1  0
  9 10  1  0
  9 11  1  0
  9 12  1  0
 12 13  1  1
 12 14  1  0
 14 15  1  0
 15 16  1  0
 16 17  1  0
 16 18  1  0
 16 19  1  0
 15 20  1  0
 20 21  1  0
 21 22  4  0
 22 23  4  0
 23 24  1  0
 24 25  4  0
 25 26  1  0
 25 27  4  0
 27 28  1  0
 27 29  4  0
 29 30  1  0
 29 31  4  0
 23 32  4  0
 32 33  4  0
 20 34  1  0
 20 35  1  0
 14 36  1  0
 14 37  1  0
 12 38  1  0
 38 39  1  0
 38 40  1  0
  5 41  1  0
  5 42  1  0
 38  6  1  0
 33 21  4  0
 31 24  4  0
M  END
>  <sample_id>  (36)
train::CCN1CC(CN(C)Cc2nc(-c3cccs3)no2)CC1=O__gen0002

>  <partition>  (36)
BAT_EXTERNAL_CONFIRM

>  <method>  (36)
BA_seed193

>  <candidate>  (36)
primary

$$$$
train::CC1CCCCN1CC(O)COCc1ccc(Cl)cc1__gen0000
     RDKit          3D

 44 45  0  0  0  0  0  0  0  0999 V2000
   -0.2061    2.2443    2.6011 C   0  0  0  0  0  0  0  0  0  0  0  0
    0.1933    3.2661    2.7002 H   0  0  0  0  0  0  0  0  0  1  0  0
   -0.1587    1.7665    3.5862 H   0  0  0  0  0  0  0  0  0  2  0  0
   -1.2495    2.3239    2.2828 H   0  0  0  0  0  0  0  0  0  3  0  0
    0.6391    1.4819    1.6024 C   0  0  2  0  0  0  0  0  0  4  0  0
    0.4557    1.8951    0.6019 H   0  0  0  0  0  0  0  0  0 43  0  0
    0.3450    0.0593    1.6101 N   0  0  0  0  0  0  0  0  0  5  0  0
   -1.0424   -0.3958    1.5536 C   0  0  0  0  0  0  0  0  0 18  0  0
   -1.4930   -0.2508    2.5360 H   0  0  0  0  0  0  0  0  0 19  0  0
   -1.9913    0.2480    0.5060 C   0  0  2  0  0  0  0  0  0 20  0  0
   -2.6265    1.4318    0.9989 O   0  0  0  0  0  0  0  0  0 21  0  0
   -3.1867    1.1753    1.7449 H   0  0  0  0  0  0  0  0  0 22  0  0
   -3.0959   -0.7363    0.1088 C   0  0  0  0  0  0  0  0  0 23  0  0
   -2.7059   -1.8578   -0.6673 O   0  0  0  0  0  0  0  0  0 24  0  0
   -2.4853   -1.5954   -2.0351 C   0  0  0  0  0  0  0  0  0 25  0  0
   -1.0693   -1.2143   -2.3716 C   0  0  0  0  0  0  0  0  0 26  0  0
   -0.0517   -2.1504   -2.2482 C   0  0  0  0  0  0  0  0  0 27  0  0
   -0.2853   -3.1451   -1.8969 H   0  0  0  0  0  0  0  0  0 36  0  0
    1.2572   -1.8295   -2.5695 C   0  0  0  0  0  0  0  0  0 28  0  0
    2.0484   -2.5505   -2.4491 H   0  0  0  0  0  0  0  0  0 35  0  0
    1.5515   -0.5424   -3.0000 C   0  0  0  0  0  0  0  0  0 29  0  0
    3.1860   -0.1250   -3.3921 Cl  0  0  0  0  0  0  0  0  0 34  0  0
    0.5450    0.4024   -3.1609 C   0  0  0  0  0  0  0  0  0 30  0  0
    0.7958    1.3987   -3.5093 H   0  0  0  0  0  0  0  0  0 33  0  0
   -0.7523    0.0600   -2.8331 C   0  0  0  0  0  0  0  0  0 31  0  0
   -1.5393    0.7994   -2.9667 H   0  0  0  0  0  0  0  0  0 32  0  0
   -2.7131   -2.5454   -2.5396 H   0  0  0  0  0  0  0  0  0 37  0  0
   -3.1870   -0.8338   -2.4096 H   0  0  0  0  0  0  0  0  0 38  0  0
   -3.5537   -1.1568    1.0035 H   0  0  0  0  0  0  0  0  0 39  0  0
   -3.8800   -0.1783   -0.4457 H   0  0  0  0  0  0  0  0  0 40  0  0
   -1.4213    0.5662   -0.3722 H   0  0  0  0  0  0  0  0  0 41  0  0
   -1.0030   -1.4647    1.3541 H   0  0  0  0  0  0  0  0  0 42  0  0
    1.1879   -0.6970    0.6973 C   0  0  0  0  0  0  0  0  0  6  0  0
    0.8917   -1.7460    0.7266 H   0  0  0  0  0  0  0  0  0 16  0  0
    1.0627   -0.3370   -0.3396 H   0  0  0  0  0  0  0  0  0 17  0  0
    2.6523   -0.5702    1.0930 C   0  0  0  0  0  0  0  0  0  7  0  0
    3.2710   -1.1525    0.4123 H   0  0  0  0  0  0  0  0  0 14  0  0
    2.7907   -0.9576    2.0995 H   0  0  0  0  0  0  0  0  0 15  0  0
    3.0505    0.8915    1.0570 C   0  0  0  0  0  0  0  0  0  8  0  0
    4.0803    1.0206    1.3669 H   0  0  0  0  0  0  0  0  0 12  0  0
    2.9554    1.2722    0.0353 H   0  0  0  0  0  0  0  0  0 13  0  0
    2.1178    1.6751    1.9716 C   0  0  0  0  0  0  0  0  0  9  0  0
    2.2527    1.3211    2.9979 H   0  0  0  0  0  0  0  0  0 10  0  0
    2.3675    2.7332    1.9583 H   0  0  0  0  0  0  0  0  0 11  0  0
  1  2  1  0
  1  3  1  0
  1  4  1  0
  1  5  1  0
  5  6  1  6
  5  7  1  0
  7  8  1  0
  8  9  1  0
  8 10  1  0
 10 11  1  0
 11 12  1  0
 10 13  1  0
 13 14  1  0
 14 15  1  0
 15 16  1  0
 16 17  4  0
 17 18  1  0
 17 19  4  0
 19 20  1  0
 19 21  4  0
 21 22  1  0
 21 23  4  0
 23 24  1  0
 23 25  4  0
 25 26  1  0
 15 27  1  0
 15 28  1  0
 13 29  1  0
 13 30  1  0
 10 31  1  1
  8 32  1  0
  7 33  1  0
 33 34  1  0
 33 35  1  0
 33 36  1  0
 36 37  1  0
 36 38  1  0
 36 39  1  0
 39 40  1  0
 39 41  1  0
 39 42  1  0
 42 43  1  0
 42 44  1  0
 42  5  1  0
 25 16  4  0
M  END
>  <sample_id>  (37)
train::CC1CCCCN1CC(O)COCc1ccc(Cl)cc1__gen0000

>  <partition>  (37)
BAT_EXTERNAL_CONFIRM

>  <method>  (37)
BA_seed193

>  <candidate>  (37)
primary

$$$$
train::CC1CCCCN1CC(O)COCc1ccc(Cl)cc1__gen0001
     RDKit          3D

 44 45  0  0  0  0  0  0  0  0999 V2000
    2.9360   -2.0638   -0.5254 C   0  0  0  0  0  0  0  0  0  0  0  0
    3.4078   -2.9672   -0.9005 H   0  0  0  0  0  0  0  0  0  1  0  0
    3.2432   -1.2252   -1.1391 H   0  0  0  0  0  0  0  0  0  2  0  0
    3.2756   -1.8763    0.4862 H   0  0  0  0  0  0  0  0  0  3  0  0
    1.4064   -2.2145   -0.5727 C   0  0  2  0  0  0  0  0  0  4  0  0
    1.1357   -2.4524   -1.6076 H   0  0  0  0  0  0  0  0  0 43  0  0
    0.7589   -0.9551   -0.2343 N   0  0  0  0  0  0  0  0  0  5  0  0
   -0.5252   -0.7508   -0.8519 C   0  0  0  0  0  0  0  0  0 18  0  0
   -1.2816   -0.4332   -0.1210 H   0  0  0  0  0  0  0  0  0 19  0  0
   -0.3575    0.3351   -1.9118 C   0  0  1  0  0  0  0  0  0 20  0  0
    0.5865   -0.0872   -2.8679 O   0  0  0  0  0  0  0  0  0 21  0  0
    1.3619   -0.4029   -2.3709 H   0  0  0  0  0  0  0  0  0 22  0  0
   -1.6390    0.6903   -2.6594 C   0  0  0  0  0  0  0  0  0 23  0  0
   -2.6274    1.3650   -1.9019 O   0  0  0  0  0  0  0  0  0 24  0  0
   -2.3154    2.6867   -1.5338 C   0  0  0  0  0  0  0  0  0 25  0  0
   -1.6007    2.7699   -0.2101 C   0  0  0  0  0  0  0  0  0 26  0  0
   -2.1597    2.1296    0.8926 C   0  0  0  0  0  0  0  0  0 27  0  0
   -3.1061    1.6209    0.7855 H   0  0  0  0  0  0  0  0  0 36  0  0
   -1.5324    2.1585    2.1276 C   0  0  0  0  0  0  0  0  0 28  0  0
   -1.9704    1.6493    2.9718 H   0  0  0  0  0  0  0  0  0 35  0  0
   -0.3125    2.8064    2.2519 C   0  0  0  0  0  0  0  0  0 29  0  0
    0.5009    2.8122    3.7737 Cl  0  0  0  0  0  0  0  0  0 34  0  0
    0.2556    3.4496    1.1689 C   0  0  0  0  0  0  0  0  0 30  0  0
    1.2106    3.9495    1.2779 H   0  0  0  0  0  0  0  0  0 33  0  0
   -0.3838    3.4224   -0.0565 C   0  0  0  0  0  0  0  0  0 31  0  0
    0.0710    3.9105   -0.9042 H   0  0  0  0  0  0  0  0  0 32  0  0
   -1.7350    3.1987   -2.3135 H   0  0  0  0  0  0  0  0  0 37  0  0
   -3.2879    3.1993   -1.4471 H   0  0  0  0  0  0  0  0  0 38  0  0
   -2.1157   -0.2373   -2.9890 H   0  0  0  0  0  0  0  0  0 39  0  0
   -1.3694    1.2794   -3.5421 H   0  0  0  0  0  0  0  0  0 40  0  0
    0.0366    1.2364   -1.4076 H   0  0  0  0  0  0  0  0  0 41  0  0
   -0.8976   -1.6473   -1.3469 H   0  0  0  0  0  0  0  0  0 42  0  0
    0.8335   -0.6593    1.1819 C   0  0  0  0  0  0  0  0  0  6  0  0
    0.2765    0.2599    1.3736 H   0  0  0  0  0  0  0  0  0 16  0  0
    1.8741   -0.4692    1.4439 H   0  0  0  0  0  0  0  0  0 17  0  0
    0.2971   -1.7862    2.0840 C   0  0  0  0  0  0  0  0  0  7  0  0
   -0.7732   -1.9232    1.8987 H   0  0  0  0  0  0  0  0  0 14  0  0
    0.4322   -1.5141    3.1310 H   0  0  0  0  0  0  0  0  0 15  0  0
    1.0445   -3.0849    1.7764 C   0  0  0  0  0  0  0  0  0  8  0  0
    2.0952   -2.9769    2.0470 H   0  0  0  0  0  0  0  0  0 12  0  0
    0.6387   -3.9143    2.3671 H   0  0  0  0  0  0  0  0  0 13  0  0
    0.9278   -3.3936    0.2838 C   0  0  0  0  0  0  0  0  0  9  0  0
    1.5027   -4.2916    0.0375 H   0  0  0  0  0  0  0  0  0 10  0  0
   -0.1182   -3.6028    0.0546 H   0  0  0  0  0  0  0  0  0 11  0  0
  1  2  1  0
  1  3  1  0
  1  4  1  0
  1  5  1  0
  5  6  1  6
  5  7  1  0
  7  8  1  0
  8  9  1  0
  8 10  1  0
 10 11  1  0
 11 12  1  0
 10 13  1  0
 13 14  1  0
 14 15  1  0
 15 16  1  0
 16 17  4  0
 17 18  1  0
 17 19  4  0
 19 20  1  0
 19 21  4  0
 21 22  1  0
 21 23  4  0
 23 24  1  0
 23 25  4  0
 25 26  1  0
 15 27  1  0
 15 28  1  0
 13 29  1  0
 13 30  1  0
 10 31  1  1
  8 32  1  0
  7 33  1  0
 33 34  1  0
 33 35  1  0
 33 36  1  0
 36 37  1  0
 36 38  1  0
 36 39  1  0
 39 40  1  0
 39 41  1  0
 39 42  1  0
 42 43  1  0
 42 44  1  0
 42  5  1  0
 25 16  4  0
M  END
>  <sample_id>  (38)
train::CC1CCCCN1CC(O)COCc1ccc(Cl)cc1__gen0001

>  <partition>  (38)
BAT_EXTERNAL_CONFIRM

>  <method>  (38)
BA_seed193

>  <candidate>  (38)
primary

$$$$
train::CC1CCCCN1CC(O)COCc1ccc(Cl)cc1__gen0002
     RDKit          3D

 44 45  0  0  0  0  0  0  0  0999 V2000
   -0.5693   -2.3509    2.9005 C   0  0  0  0  0  0  0  0  0  0  0  0
   -0.3249   -1.5347    3.5771 H   0  0  0  0  0  0  0  0  0  1  0  0
   -1.4383   -2.0977    2.3151 H   0  0  0  0  0  0  0  0  0  2  0  0
   -0.7878   -3.2465    3.4920 H   0  0  0  0  0  0  0  0  0  3  0  0
    0.6479   -2.6400    2.0037 C   0  0  2  0  0  0  0  0  0  4  0  0
    1.4232   -3.0607    2.6481 H   0  0  0  0  0  0  0  0  0 43  0  0
    1.2166   -1.4286    1.4351 N   0  0  0  0  0  0  0  0  0  5  0  0
    0.3675   -0.4634    0.8259 C   0  0  0  0  0  0  0  0  0 18  0  0
   -0.6981   -0.7543    0.9020 H   0  0  0  0  0  0  0  0  0 19  0  0
    0.5447    0.8822    1.5546 C   0  0  2  0  0  0  0  0  0 20  0  0
    0.0029    0.8488    2.8590 O   0  0  0  0  0  0  0  0  0 21  0  0
   -0.9790    0.7556    2.7720 H   0  0  0  0  0  0  0  0  0 22  0  0
   -0.0785    2.0174    0.7619 C   0  0  0  0  0  0  0  0  0 23  0  0
   -1.4749    1.7511    0.6063 O   0  0  0  0  0  0  0  0  0 24  0  0
   -2.1761    2.7916   -0.0653 C   0  0  0  0  0  0  0  0  0 25  0  0
   -1.7042    2.9473   -1.5053 C   0  0  0  0  0  0  0  0  0 26  0  0
   -1.7754    1.8688   -2.3712 C   0  0  0  0  0  0  0  0  0 27  0  0
   -2.2003    0.9429   -2.0141 H   0  0  0  0  0  0  0  0  0 36  0  0
   -1.3342    1.9738   -3.6734 C   0  0  0  0  0  0  0  0  0 28  0  0
   -1.4018    1.1303   -4.3445 H   0  0  0  0  0  0  0  0  0 35  0  0
   -0.8101    3.1810   -4.1071 C   0  0  0  0  0  0  0  0  0 29  0  0
   -0.2624    3.3213   -5.7437 Cl  0  0  0  0  0  0  0  0  0 34  0  0
   -0.7340    4.2710   -3.2520 C   0  0  0  0  0  0  0  0  0 30  0  0
   -0.3152    5.1956   -3.6108 H   0  0  0  0  0  0  0  0  0 33  0  0
   -1.1708    4.1425   -1.9540 C   0  0  0  0  0  0  0  0  0 31  0  0
   -1.0990    4.9925   -1.2862 H   0  0  0  0  0  0  0  0  0 32  0  0
   -2.0554    3.7370    0.4792 H   0  0  0  0  0  0  0  0  0 37  0  0
   -3.2148    2.4795   -0.0449 H   0  0  0  0  0  0  0  0  0 38  0  0
    0.0330    2.9702    1.3058 H   0  0  0  0  0  0  0  0  0 39  0  0
    0.3825    2.1239   -0.2172 H   0  0  0  0  0  0  0  0  0 40  0  0
    1.6066    1.1067    1.6666 H   0  0  0  0  0  0  0  0  0 41  0  0
    0.5813   -0.3195   -0.2307 H   0  0  0  0  0  0  0  0  0 42  0  0
    2.4053   -1.7509    0.6639 C   0  0  0  0  0  0  0  0  0  6  0  0
    3.1389   -2.2018    1.3421 H   0  0  0  0  0  0  0  0  0 16  0  0
    2.8287   -0.8275    0.2713 H   0  0  0  0  0  0  0  0  0 17  0  0
    2.1335   -2.7349   -0.4798 C   0  0  0  0  0  0  0  0  0  7  0  0
    1.4445   -2.2957   -1.1962 H   0  0  0  0  0  0  0  0  0 14  0  0
    3.0582   -2.9564   -1.0092 H   0  0  0  0  0  0  0  0  0 15  0  0
    1.5299   -4.0137    0.0974 C   0  0  0  0  0  0  0  0  0  8  0  0
    2.2742   -4.5108    0.7245 H   0  0  0  0  0  0  0  0  0 12  0  0
    1.2646   -4.7069   -0.7051 H   0  0  0  0  0  0  0  0  0 13  0  0
    0.2991   -3.6822    0.9271 C   0  0  0  0  0  0  0  0  0  9  0  0
   -0.4858   -3.2763    0.2719 H   0  0  0  0  0  0  0  0  0 10  0  0
   -0.0930   -4.5775    1.4075 H   0  0  0  0  0  0  0  0  0 11  0  0
  1  2  1  0
  1  3  1  0
  1  4  1  0
  1  5  1  0
  5  6  1  1
  5  7  1  0
  7  8  1  0
  8  9  1  0
  8 10  1  0
 10 11  1  0
 11 12  1  0
 10 13  1  0
 13 14  1  0
 14 15  1  0
 15 16  1  0
 16 17  4  0
 17 18  1  0
 17 19  4  0
 19 20  1  0
 19 21  4  0
 21 22  1  0
 21 23  4  0
 23 24  1  0
 23 25  4  0
 25 26  1  0
 15 27  1  0
 15 28  1  0
 13 29  1  0
 13 30  1  0
 10 31  1  6
  8 32  1  0
  7 33  1  0
 33 34  1  0
 33 35  1  0
 33 36  1  0
 36 37  1  0
 36 38  1  0
 36 39  1  0
 39 40  1  0
 39 41  1  0
 39 42  1  0
 42 43  1  0
 42 44  1  0
 42  5  1  0
 25 16  4  0
M  END
>  <sample_id>  (39)
train::CC1CCCCN1CC(O)COCc1ccc(Cl)cc1__gen0002

>  <partition>  (39)
BAT_EXTERNAL_CONFIRM

>  <method>  (39)
BA_seed193

>  <candidate>  (39)
primary

$$$$
train::CC(=O)N1CCC(=NNc2ccnc3cc(Cl)ccc23)CC1__gen0000
     RDKit          3D

 39 41  0  0  0  0  0  0  0  0999 V2000
   -5.2633    2.9005    0.9785 C   0  0  0  0  0  0  0  0  0  0  0  0
   -4.7301    1.7949    0.0896 C   0  0  0  0  0  0  0  0  0  1  0  0
   -5.4556    0.9860   -0.4476 O   0  0  0  0  0  0  0  0  0  2  0  0
   -3.3810    1.7571   -0.1031 N   0  0  0  0  0  0  0  0  0  3  0  0
   -2.8056    0.6889   -0.8978 C   0  0  0  0  0  0  0  0  0  4  0  0
   -3.6334    0.1552   -1.3755 H   0  0  0  0  0  0  0  0  0  5  0  0
   -2.1494    1.1244   -1.6596 H   0  0  0  0  0  0  0  0  0  6  0  0
   -2.0081   -0.2600    0.0055 C   0  0  0  0  0  0  0  0  0  7  0  0
   -1.5637   -1.0566   -0.5933 H   0  0  0  0  0  0  0  0  0 34  0  0
   -2.6948   -0.7248    0.7121 H   0  0  0  0  0  0  0  0  0 35  0  0
   -0.9742    0.5139    0.7807 C   0  0  0  0  0  0  0  0  0  8  0  0
    0.2809    0.3629    0.8272 N   0  0  0  0  0  0  0  0  0  9  0  0
    0.9265   -0.5736    0.1321 N   0  0  0  0  0  0  0  0  0 10  0  0
    2.2968   -0.7328    0.2716 C   0  0  0  0  0  0  0  0  0 11  0  0
    2.9986    0.0220    1.1996 C   0  0  0  0  0  0  0  0  0 12  0  0
    2.4621    0.7347    1.8040 H   0  0  0  0  0  0  0  0  0 26  0  0
    4.3695   -0.1761    1.3202 C   0  0  0  0  0  0  0  0  0 13  0  0
    4.9357    0.4039    2.0443 H   0  0  0  0  0  0  0  0  0 25  0  0
    5.0555   -1.0427    0.6207 N   0  0  0  0  0  0  0  0  0 14  0  0
    4.4047   -1.7773   -0.2939 C   0  0  0  0  0  0  0  0  0 15  0  0
    5.1689   -2.6792   -1.0584 C   0  0  0  0  0  0  0  0  0 16  0  0
    6.2289   -2.7579   -0.8651 H   0  0  0  0  0  0  0  0  0 24  0  0
    4.5549   -3.4676   -2.0128 C   0  0  0  0  0  0  0  0  0 17  0  0
    5.4908   -4.5804   -2.9490 Cl  0  0  0  0  0  0  0  0  0 23  0  0
    3.1899   -3.3747   -2.2397 C   0  0  0  0  0  0  0  0  0 18  0  0
    2.7321   -4.0094   -2.9850 H   0  0  0  0  0  0  0  0  0 22  0  0
    2.4222   -2.4975   -1.5102 C   0  0  0  0  0  0  0  0  0 19  0  0
    1.3655   -2.4613   -1.7122 H   0  0  0  0  0  0  0  0  0 21  0  0
    3.0010   -1.6757   -0.5263 C   0  0  0  0  0  0  0  0  0 20  0  0
    0.4495   -1.2011   -0.5123 H   0  0  0  0  0  0  0  0  0 27  0  0
   -1.5677    1.6689    1.5349 C   0  0  0  0  0  0  0  0  0 28  0  0
   -2.2167    1.2941    2.3277 H   0  0  0  0  0  0  0  0  0 29  0  0
   -0.7628    2.2488    1.9974 H   0  0  0  0  0  0  0  0  0 30  0  0
   -2.3750    2.5489    0.5731 C   0  0  0  0  0  0  0  0  0 31  0  0
   -1.7053    2.9865   -0.1740 H   0  0  0  0  0  0  0  0  0 32  0  0
   -2.8525    3.3572    1.1302 H   0  0  0  0  0  0  0  0  0 33  0  0
   -4.9632    3.8718    0.5887 H   0  0  0  0  0  0  0  0  0 36  0  0
   -6.3428    2.8283    0.9830 H   0  0  0  0  0  0  0  0  0 37  0  0
   -4.8890    2.7994    1.9947 H   0  0  0  0  0  0  0  0  0 38  0  0
  1  2  1  0
  2  3  2  0
  2  4  1  0
  4  5  1  0
  5  6  1  0
  5  7  1  0
  5  8  1  0
  8  9  1  0
  8 10  1  0
  8 11  1  0
 11 12  2  0
 12 13  1  0
 13 14  1  0
 14 15  4  0
 15 16  1  0
 15 17  4  0
 17 18  1  0
 17 19  4  0
 19 20  4  0
 20 21  4  0
 21 22  1  0
 21 23  4  0
 23 24  1  0
 23 25  4  0
 25 26  1  0
 25 27  4  0
 27 28  1  0
 27 29  4  0
 13 30  1  0
 11 31  1  0
 31 32  1  0
 31 33  1  0
 31 34  1  0
 34 35  1  0
 34 36  1  0
  1 37  1  0
  1 38  1  0
  1 39  1  0
 34  4  1  0
 29 14  4  0
 29 20  4  0
M  END
>  <sample_id>  (40)
train::CC(=O)N1CCC(=NNc2ccnc3cc(Cl)ccc23)CC1__gen0000

>  <partition>  (40)
BAT_EXTERNAL_CONFIRM

>  <method>  (40)
BA_seed193

>  <candidate>  (40)
primary

$$$$
train::CC(=O)N1CCC(=NNc2ccnc3cc(Cl)ccc23)CC1__gen0001
     RDKit          3D

 39 41  0  0  0  0  0  0  0  0999 V2000
    1.7026    1.8299   -4.9910 C   0  0  0  0  0  0  0  0  0  0  0  0
    2.6476    1.3838   -3.8902 C   0  0  0  0  0  0  0  0  0  1  0  0
    3.7485    0.9229   -4.1165 O   0  0  0  0  0  0  0  0  0  2  0  0
    2.2032    1.5514   -2.6189 N   0  0  0  0  0  0  0  0  0  3  0  0
    3.0443    1.1233   -1.5145 C   0  0  0  0  0  0  0  0  0  4  0  0
    3.9311    0.6717   -1.9654 H   0  0  0  0  0  0  0  0  0  5  0  0
    3.3475    1.9985   -0.9381 H   0  0  0  0  0  0  0  0  0  6  0  0
    2.2950    0.1152   -0.6460 C   0  0  0  0  0  0  0  0  0  7  0  0
    2.1244   -0.8024   -1.2155 H   0  0  0  0  0  0  0  0  0 34  0  0
    2.9084   -0.1393    0.2222 H   0  0  0  0  0  0  0  0  0 35  0  0
    0.9630    0.6801   -0.2098 C   0  0  0  0  0  0  0  0  0  8  0  0
    0.0999    0.1076    0.5274 N   0  0  0  0  0  0  0  0  0  9  0  0
    0.3210   -1.0838    1.0853 N   0  0  0  0  0  0  0  0  0 10  0  0
   -0.5147   -1.7676    1.9214 C   0  0  0  0  0  0  0  0  0 11  0  0
   -0.0770   -2.9837    2.4274 C   0  0  0  0  0  0  0  0  0 12  0  0
    0.9011   -3.3593    2.1675 H   0  0  0  0  0  0  0  0  0 26  0  0
   -0.8940   -3.6942    3.2928 C   0  0  0  0  0  0  0  0  0 13  0  0
   -0.5677   -4.6482    3.6968 H   0  0  0  0  0  0  0  0  0 25  0  0
   -2.0967   -3.3143    3.6608 N   0  0  0  0  0  0  0  0  0 14  0  0
   -2.5639   -2.1483    3.1773 C   0  0  0  0  0  0  0  0  0 15  0  0
   -3.8561   -1.7554    3.5961 C   0  0  0  0  0  0  0  0  0 16  0  0
   -4.3841   -2.3959    4.2713 H   0  0  0  0  0  0  0  0  0 24  0  0
   -4.3791   -0.5697    3.1297 C   0  0  0  0  0  0  0  0  0 17  0  0
   -5.9559   -0.0851    3.6411 Cl  0  0  0  0  0  0  0  0  0 23  0  0
   -3.6681    0.2490    2.2649 C   0  0  0  0  0  0  0  0  0 18  0  0
   -4.1048    1.1722    1.9161 H   0  0  0  0  0  0  0  0  0 22  0  0
   -2.4003   -0.1145    1.8518 C   0  0  0  0  0  0  0  0  0 19  0  0
   -1.8461    0.5197    1.1767 H   0  0  0  0  0  0  0  0  0 21  0  0
   -1.8081   -1.3111    2.2980 C   0  0  0  0  0  0  0  0  0 20  0  0
    1.2310   -1.5273    0.9067 H   0  0  0  0  0  0  0  0  0 27  0  0
    0.6377    2.0316   -0.7708 C   0  0  0  0  0  0  0  0  0 28  0  0
   -0.4077    2.2566   -0.5636 H   0  0  0  0  0  0  0  0  0 29  0  0
    1.2660    2.7806   -0.3018 H   0  0  0  0  0  0  0  0  0 30  0  0
    0.8735    2.0327   -2.2839 C   0  0  0  0  0  0  0  0  0 31  0  0
    0.7320    3.0515   -2.6645 H   0  0  0  0  0  0  0  0  0 32  0  0
    0.1038    1.4048   -2.7577 H   0  0  0  0  0  0  0  0  0 33  0  0
    2.1995    1.6685   -5.9443 H   0  0  0  0  0  0  0  0  0 36  0  0
    1.4693    2.8895   -4.8871 H   0  0  0  0  0  0  0  0  0 37  0  0
    0.7738    1.2589   -4.9518 H   0  0  0  0  0  0  0  0  0 38  0  0
  1  2  1  0
  2  3  2  0
  2  4  1  0
  4  5  1  0
  5  6  1  0
  5  7  1  0
  5  8  1  0
  8  9  1  0
  8 10  1  0
  8 11  1  0
 11 12  2  0
 12 13  1  0
 13 14  1  0
 14 15  4  0
 15 16  1  0
 15 17  4  0
 17 18  1  0
 17 19  4  0
 19 20  4  0
 20 21  4  0
 21 22  1  0
 21 23  4  0
 23 24  1  0
 23 25  4  0
 25 26  1  0
 25 27  4  0
 27 28  1  0
 27 29  4  0
 13 30  1  0
 11 31  1  0
 31 32  1  0
 31 33  1  0
 31 34  1  0
 34 35  1  0
 34 36  1  0
  1 37  1  0
  1 38  1  0
  1 39  1  0
 34  4  1  0
 29 14  4  0
 29 20  4  0
M  END
>  <sample_id>  (41)
train::CC(=O)N1CCC(=NNc2ccnc3cc(Cl)ccc23)CC1__gen0001

>  <partition>  (41)
BAT_EXTERNAL_CONFIRM

>  <method>  (41)
BA_seed193

>  <candidate>  (41)
primary

$$$$
train::CC(=O)N1CCC(=NNc2ccnc3cc(Cl)ccc23)CC1__gen0002
     RDKit          3D

 39 41  0  0  0  0  0  0  0  0999 V2000
    3.2413   -1.5073   -4.5554 C   0  0  0  0  0  0  0  0  0  0  0  0
    3.6574   -0.7907   -3.2840 C   0  0  0  0  0  0  0  0  0  1  0  0
    4.6605   -0.1121   -3.2265 O   0  0  0  0  0  0  0  0  0  2  0  0
    2.8584   -0.9687   -2.1955 N   0  0  0  0  0  0  0  0  0  3  0  0
    1.5729   -1.6172   -2.1514 C   0  0  0  0  0  0  0  0  0  4  0  0
    1.4111   -2.2028   -3.0586 H   0  0  0  0  0  0  0  0  0  5  0  0
    1.5582   -2.3127   -1.2949 H   0  0  0  0  0  0  0  0  0  6  0  0
    0.4619   -0.5827   -1.9787 C   0  0  0  0  0  0  0  0  0  7  0  0
    0.4420    0.0750   -2.8508 H   0  0  0  0  0  0  0  0  0 34  0  0
   -0.5077   -1.0745   -1.8892 H   0  0  0  0  0  0  0  0  0 35  0  0
    0.7276    0.2316   -0.7527 C   0  0  0  0  0  0  0  0  0  8  0  0
   -0.2009    0.2967    0.1235 N   0  0  0  0  0  0  0  0  0  9  0  0
   -0.0688    1.0331    1.2459 N   0  0  0  0  0  0  0  0  0 10  0  0
   -1.0236    1.2011    2.2061 C   0  0  0  0  0  0  0  0  0 11  0  0
   -0.7169    2.0389    3.2762 C   0  0  0  0  0  0  0  0  0 12  0  0
    0.2554    2.5043    3.3359 H   0  0  0  0  0  0  0  0  0 26  0  0
   -1.6574    2.2350    4.2899 C   0  0  0  0  0  0  0  0  0 13  0  0
   -1.4135    2.8751    5.1230 H   0  0  0  0  0  0  0  0  0 25  0  0
   -2.8297    1.6865    4.3040 N   0  0  0  0  0  0  0  0  0 14  0  0
   -3.1842    0.8871    3.2820 C   0  0  0  0  0  0  0  0  0 15  0  0
   -4.4644    0.3117    3.3362 C   0  0  0  0  0  0  0  0  0 16  0  0
   -5.0984    0.5540    4.1707 H   0  0  0  0  0  0  0  0  0 24  0  0
   -4.8851   -0.5166    2.3122 C   0  0  0  0  0  0  0  0  0 17  0  0
   -6.4626   -1.2266    2.3696 Cl  0  0  0  0  0  0  0  0  0 23  0  0
   -4.0414   -0.8109    1.2373 C   0  0  0  0  0  0  0  0  0 18  0  0
   -4.3897   -1.4671    0.4555 H   0  0  0  0  0  0  0  0  0 22  0  0
   -2.7834   -0.2592    1.1706 C   0  0  0  0  0  0  0  0  0 19  0  0
   -2.1366   -0.4751    0.3363 H   0  0  0  0  0  0  0  0  0 21  0  0
   -2.3102    0.5811    2.1944 C   0  0  0  0  0  0  0  0  0 20  0  0
    0.7834    1.5743    1.3826 H   0  0  0  0  0  0  0  0  0 27  0  0
    2.1046    0.8470   -0.7420 C   0  0  0  0  0  0  0  0  0 28  0  0
    2.3324    1.3607    0.1976 H   0  0  0  0  0  0  0  0  0 29  0  0
    2.1547    1.5924   -1.5393 H   0  0  0  0  0  0  0  0  0 30  0  0
    3.1648   -0.2373   -0.9840 C   0  0  0  0  0  0  0  0  0 31  0  0
    4.1450    0.2246   -1.0972 H   0  0  0  0  0  0  0  0  0 32  0  0
    3.1665   -0.9404   -0.1426 H   0  0  0  0  0  0  0  0  0 33  0  0
    3.1625   -2.5747   -4.3915 H   0  0  0  0  0  0  0  0  0 36  0  0
    4.0198   -1.3117   -5.2935 H   0  0  0  0  0  0  0  0  0 37  0  0
    2.2940   -1.1220   -4.9217 H   0  0  0  0  0  0  0  0  0 38  0  0
  1  2  1  0
  2  3  2  0
  2  4  1  0
  4  5  1  0
  5  6  1  0
  5  7  1  0
  5  8  1  0
  8  9  1  0
  8 10  1  0
  8 11  1  0
 11 12  2  0
 12 13  1  0
 13 14  1  0
 14 15  4  0
 15 16  1  0
 15 17  4  0
 17 18  1  0
 17 19  4  0
 19 20  4  0
 20 21  4  0
 21 22  1  0
 21 23  4  0
 23 24  1  0
 23 25  4  0
 25 26  1  0
 25 27  4  0
 27 28  1  0
 27 29  4  0
 13 30  1  0
 11 31  1  0
 31 32  1  0
 31 33  1  0
 31 34  1  0
 34 35  1  0
 34 36  1  0
  1 37  1  0
  1 38  1  0
  1 39  1  0
 34  4  1  0
 29 14  4  0
 29 20  4  0
M  END
>  <sample_id>  (42)
train::CC(=O)N1CCC(=NNc2ccnc3cc(Cl)ccc23)CC1__gen0002

>  <partition>  (42)
BAT_EXTERNAL_CONFIRM

>  <method>  (42)
BA_seed193

>  <candidate>  (42)
primary

$$$$
train::COc1ccc(C(=O)NC(=S)NNC(=O)c2ccc(O)cc2)cc1[N+](=O)[O-]__gen0000
     RDKit          3D

 41 42  0  0  0  0  0  0  0  0999 V2000
    2.0091    4.9513    4.3012 C   0  0  0  0  0  0  0  0  0  0  0  0
    2.1158    5.5496    5.2034 H   0  0  0  0  0  0  0  0  0  1  0  0
    1.6735    5.5944    3.4796 H   0  0  0  0  0  0  0  0  0  2  0  0
    2.9675    4.4879    4.0480 H   0  0  0  0  0  0  0  0  0  3  0  0
    1.0403    3.9764    4.6256 O   0  0  0  0  0  0  0  0  0  4  0  0
    0.6682    3.0888    3.7082 C   0  0  0  0  0  0  0  0  0  5  0  0
    1.1836    3.0107    2.4050 C   0  0  0  0  0  0  0  0  0  6  0  0
    1.9256    3.7152    2.0815 H   0  0  0  0  0  0  0  0  0 40  0  0
    0.7563    2.0287    1.5357 C   0  0  0  0  0  0  0  0  0  7  0  0
    1.1784    1.9830    0.5354 H   0  0  0  0  0  0  0  0  0 39  0  0
   -0.2095    1.0992    1.8970 C   0  0  0  0  0  0  0  0  0  8  0  0
   -0.6088    0.0897    0.8817 C   0  0  0  0  0  0  0  0  0 15  0  0
    0.1198   -0.2234   -0.0462 O   0  0  0  0  0  0  0  0  0 16  0  0
   -1.8752   -0.4184    1.0745 N   0  0  0  0  0  0  0  0  0 17  0  0
   -2.6891   -1.3272    0.4876 C   0  0  0  0  0  0  0  0  0 18  0  0
   -2.3903   -1.9835   -0.6600 N   0  0  0  0  0  0  0  0  0 19  0  0
   -1.3267   -1.9330   -1.4785 N   0  0  0  0  0  0  0  0  0 20  0  0
   -1.4839   -2.6116   -2.6584 C   0  0  0  0  0  0  0  0  0 21  0  0
   -2.5460   -3.1526   -2.8981 O   0  0  0  0  0  0  0  0  0 22  0  0
   -0.3470   -2.6285   -3.5793 C   0  0  0  0  0  0  0  0  0 23  0  0
   -0.5631   -3.0769   -4.8834 C   0  0  0  0  0  0  0  0  0 24  0  0
   -1.5760   -3.3563   -5.1599 H   0  0  0  0  0  0  0  0  0 34  0  0
    0.4421   -3.1188   -5.8029 C   0  0  0  0  0  0  0  0  0 25  0  0
    0.2769   -3.4610   -6.8134 H   0  0  0  0  0  0  0  0  0 33  0  0
    1.7425   -2.7550   -5.4492 C   0  0  0  0  0  0  0  0  0 26  0  0
    2.7031   -2.8129   -6.3558 O   0  0  0  0  0  0  0  0  0 31  0  0
    3.5605   -2.5720   -5.9925 H   0  0  0  0  0  0  0  0  0 32  0  0
    1.9747   -2.3156   -4.1348 C   0  0  0  0  0  0  0  0  0 27  0  0
    2.9712   -2.0376   -3.8405 H   0  0  0  0  0  0  0  0  0 30  0  0
    0.9514   -2.2595   -3.2076 C   0  0  0  0  0  0  0  0  0 28  0  0
    1.1872   -1.9340   -2.1995 H   0  0  0  0  0  0  0  0  0 29  0  0
   -0.5650   -1.3719   -1.1680 H   0  0  0  0  0  0  0  0  0 35  0  0
   -3.1108   -2.5861   -1.1006 H   0  0  0  0  0  0  0  0  0 36  0  0
   -4.1405   -1.6292    1.2285 S   0  0  0  0  0  0  0  0  0 37  0  0
   -2.3347   -0.0600    1.9120 H   0  0  0  0  0  0  0  0  0 38  0  0
   -0.7287    1.1471    3.1885 C   0  0  0  0  0  0  0  0  0  9  0  0
   -1.4335    0.4265    3.5781 H   0  0  0  0  0  0  0  0  0 14  0  0
   -0.2938    2.1176    4.0719 C   0  0  0  0  0  0  0  0  0 10  0  0
   -0.9061    2.1241    5.3927 N   0  0  0  0  0  0  0  0  0 11  0  0
   -0.8854    3.1395    6.0505 O   0  0  0  0  0  0  0  0  0 12  0  0
   -1.4335    1.0953    5.7421 O   0  0  0  0  0  0  0  0  0 13  0  0
  1  2  1  0
  1  3  1  0
  1  4  1  0
  1  5  1  0
  5  6  1  0
  6  7  4  0
  7  8  1  0
  7  9  4  0
  9 10  1  0
  9 11  4  0
 11 12  1  0
 12 13  2  0
 12 14  1  0
 14 15  1  0
 15 16  1  0
 16 17  2  0
 17 18  1  0
 18 19  2  0
 18 20  1  0
 20 21  4  0
 21 22  1  0
 21 23  4  0
 23 24  1  0
 23 25  4  0
 25 26  1  0
 26 27  1  0
 25 28  4  0
 28 29  1  0
 28 30  4  0
 30 31  1  0
 17 32  1  0
 16 33  1  0
 15 34  2  0
 14 35  1  0
 11 36  4  0
 36 37  1  0
 36 38  4  0
 38 39  1  0
 39 40  1  0
 39 41  1  0
 38  6  4  0
 30 20  4  0
M  CHG  4  16   1  17   1  40  -1  41  -1
M  END
>  <sample_id>  (43)
train::COc1ccc(C(=O)NC(=S)NNC(=O)c2ccc(O)cc2)cc1[N+](=O)[O-]__gen0000

>  <partition>  (43)
BAT_EXTERNAL_CONFIRM

>  <method>  (43)
BA_seed193

>  <candidate>  (43)
primary

$$$$
train::COc1ccc(C(=O)NC(=S)NNC(=O)c2ccc(O)cc2)cc1[N+](=O)[O-]__gen0001
     RDKit          3D

 41 42  0  0  0  0  0  0  0  0999 V2000
    0.8753    3.4878    4.3985 C   0  0  0  0  0  0  0  0  0  0  0  0
    0.3090    4.3227    4.8054 H   0  0  0  0  0  0  0  0  0  1  0  0
    1.8183    3.8697    3.9639 H   0  0  0  0  0  0  0  0  0  2  0  0
    1.1099    2.7702    5.1950 H   0  0  0  0  0  0  0  0  0  3  0  0
    0.0409    2.9279    3.4263 O   0  0  0  0  0  0  0  0  0  4  0  0
    0.4353    1.8527    2.7497 C   0  0  0  0  0  0  0  0  0  5  0  0
    1.6988    1.2383    2.8932 C   0  0  0  0  0  0  0  0  0  6  0  0
    2.3858    1.6154    3.6219 H   0  0  0  0  0  0  0  0  0 40  0  0
    2.0592    0.1395    2.1346 C   0  0  0  0  0  0  0  0  0  7  0  0
    3.0264   -0.3151    2.2940 H   0  0  0  0  0  0  0  0  0 39  0  0
    1.1783   -0.3866    1.2045 C   0  0  0  0  0  0  0  0  0  8  0  0
    1.5048   -1.5669    0.3381 C   0  0  0  0  0  0  0  0  0 15  0  0
    0.7933   -2.5370    0.2461 O   0  0  0  0  0  0  0  0  0 16  0  0
    2.6483   -1.4213   -0.3792 N   0  0  0  0  0  0  0  0  0 17  0  0
    3.1296   -2.1981   -1.3936 C   0  0  0  0  0  0  0  0  0 18  0  0
    2.2570   -2.8874   -2.1629 N   0  0  0  0  0  0  0  0  0 19  0  0
    0.9288   -2.5198   -2.3402 N   0  0  0  0  0  0  0  0  0 20  0  0
    0.6035   -1.2015   -2.4960 C   0  0  0  0  0  0  0  0  0 21  0  0
    1.4601   -0.3721   -2.6920 O   0  0  0  0  0  0  0  0  0 22  0  0
   -0.8521   -0.8898   -2.4292 C   0  0  0  0  0  0  0  0  0 23  0  0
   -1.7305   -1.6075   -1.6286 C   0  0  0  0  0  0  0  0  0 24  0  0
   -1.3934   -2.4787   -1.0655 H   0  0  0  0  0  0  0  0  0 34  0  0
   -3.0482   -1.2083   -1.5063 C   0  0  0  0  0  0  0  0  0 25  0  0
   -3.7306   -1.7483   -0.8792 H   0  0  0  0  0  0  0  0  0 33  0  0
   -3.4858   -0.0652   -2.1757 C   0  0  0  0  0  0  0  0  0 26  0  0
   -4.7702    0.3625   -2.0846 O   0  0  0  0  0  0  0  0  0 31  0  0
   -5.2413   -0.1208   -1.3960 H   0  0  0  0  0  0  0  0  0 32  0  0
   -2.6103    0.6470   -2.9878 C   0  0  0  0  0  0  0  0  0 27  0  0
   -2.9687    1.5421   -3.4740 H   0  0  0  0  0  0  0  0  0 30  0  0
   -1.3014    0.2346   -3.1012 C   0  0  0  0  0  0  0  0  0 28  0  0
   -0.6032    0.8198   -3.6838 H   0  0  0  0  0  0  0  0  0 29  0  0
    0.2523   -3.2130   -2.0796 H   0  0  0  0  0  0  0  0  0 35  0  0
    2.6786   -3.3740   -2.9502 H   0  0  0  0  0  0  0  0  0 36  0  0
    4.7499   -2.3845   -1.6328 S   0  0  0  0  0  0  0  0  0 37  0  0
    3.2813   -0.6720   -0.1041 H   0  0  0  0  0  0  0  0  0 38  0  0
   -0.0737    0.1848    1.0403 C   0  0  0  0  0  0  0  0  0  9  0  0
   -0.7741   -0.1989    0.3248 H   0  0  0  0  0  0  0  0  0 14  0  0
   -0.4322    1.3043    1.7739 C   0  0  0  0  0  0  0  0  0 10  0  0
   -1.7225    1.8751    1.5015 N   0  0  0  0  0  0  0  0  0 11  0  0
   -2.2340    2.6600    2.2674 O   0  0  0  0  0  0  0  0  0 12  0  0
   -2.2528    1.5124    0.4635 O   0  0  0  0  0  0  0  0  0 13  0  0
  1  2  1  0
  1  3  1  0
  1  4  1  0
  1  5  1  0
  5  6  1  0
  6  7  4  0
  7  8  1  0
  7  9  4  0
  9 10  1  0
  9 11  4  0
 11 12  1  0
 12 13  2  0
 12 14  1  0
 14 15  1  0
 15 16  1  0
 16 17  2  0
 17 18  1  0
 18 19  2  0
 18 20  1  0
 20 21  4  0
 21 22  1  0
 21 23  4  0
 23 24  1  0
 23 25  4  0
 25 26  1  0
 26 27  1  0
 25 28  4  0
 28 29  1  0
 28 30  4  0
 30 31  1  0
 17 32  1  0
 16 33  1  0
 15 34  2  0
 14 35  1  0
 11 36  4  0
 36 37  1  0
 36 38  4  0
 38 39  1  0
 39 40  1  0
 39 41  1  0
 38  6  4  0
 30 20  4  0
M  CHG  4  16   1  17   1  40  -1  41  -1
M  END
>  <sample_id>  (44)
train::COc1ccc(C(=O)NC(=S)NNC(=O)c2ccc(O)cc2)cc1[N+](=O)[O-]__gen0001

>  <partition>  (44)
BAT_EXTERNAL_CONFIRM

>  <method>  (44)
BA_seed193

>  <candidate>  (44)
primary

$$$$
train::COc1ccc(C(=O)NC(=S)NNC(=O)c2ccc(O)cc2)cc1[N+](=O)[O-]__gen0002
     RDKit          3D

 41 42  0  0  0  0  0  0  0  0999 V2000
    5.0240    1.9176    1.3664 C   0  0  0  0  0  0  0  0  0  0  0  0
    5.0862    2.7267    0.6259 H   0  0  0  0  0  0  0  0  0  1  0  0
    6.0152    1.7393    1.7840 H   0  0  0  0  0  0  0  0  0  2  0  0
    4.3412    2.2105    2.1711 H   0  0  0  0  0  0  0  0  0  3  0  0
    4.6311    0.6913    0.7699 O   0  0  0  0  0  0  0  0  0  4  0  0
    3.4612    0.5959    0.1555 C   0  0  0  0  0  0  0  0  0  5  0  0
    2.5286    1.6288    0.0512 C   0  0  0  0  0  0  0  0  0  6  0  0
    2.7256    2.5817    0.5174 H   0  0  0  0  0  0  0  0  0 40  0  0
    1.3484    1.4610   -0.6436 C   0  0  0  0  0  0  0  0  0  7  0  0
    0.6325    2.2747   -0.6518 H   0  0  0  0  0  0  0  0  0 39  0  0
    1.0441    0.2408   -1.2513 C   0  0  0  0  0  0  0  0  0  8  0  0
   -0.2247    0.0147   -1.9826 C   0  0  0  0  0  0  0  0  0 15  0  0
   -0.7812   -1.0663   -2.0294 O   0  0  0  0  0  0  0  0  0 16  0  0
   -0.7246    1.1437   -2.6114 N   0  0  0  0  0  0  0  0  0 17  0  0
   -1.9274    1.3395   -3.2316 C   0  0  0  0  0  0  0  0  0 18  0  0
   -3.0155    0.6403   -2.8228 N   0  0  0  0  0  0  0  0  0 19  0  0
   -3.1562   -0.0255   -1.6380 N   0  0  0  0  0  0  0  0  0 20  0  0
   -2.7409    0.5677   -0.4589 C   0  0  0  0  0  0  0  0  0 21  0  0
   -2.3796    1.7241   -0.4312 O   0  0  0  0  0  0  0  0  0 22  0  0
   -2.7474   -0.3190    0.7162 C   0  0  0  0  0  0  0  0  0 23  0  0
   -3.5231   -1.4771    0.8130 C   0  0  0  0  0  0  0  0  0 24  0  0
   -4.2051   -1.7601    0.0256 H   0  0  0  0  0  0  0  0  0 34  0  0
   -3.4445   -2.2639    1.9431 C   0  0  0  0  0  0  0  0  0 25  0  0
   -4.0543   -3.1487    2.0276 H   0  0  0  0  0  0  0  0  0 33  0  0
   -2.6061   -1.9089    3.0038 C   0  0  0  0  0  0  0  0  0 26  0  0
   -2.4951   -2.6554    4.1112 O   0  0  0  0  0  0  0  0  0 31  0  0
   -3.0618   -3.4454    4.0439 H   0  0  0  0  0  0  0  0  0 32  0  0
   -1.8368   -0.7463    2.9092 C   0  0  0  0  0  0  0  0  0 27  0  0
   -1.1876   -0.4921    3.7338 H   0  0  0  0  0  0  0  0  0 30  0  0
   -1.9167    0.0348    1.7779 C   0  0  0  0  0  0  0  0  0 28  0  0
   -1.3442    0.9474    1.6998 H   0  0  0  0  0  0  0  0  0 29  0  0
   -3.1420   -1.0291   -1.7146 H   0  0  0  0  0  0  0  0  0 35  0  0
   -3.8483    0.8616   -3.3507 H   0  0  0  0  0  0  0  0  0 36  0  0
   -2.0278    2.4454   -4.4471 S   0  0  0  0  0  0  0  0  0 37  0  0
   -0.0811    1.9243   -2.6873 H   0  0  0  0  0  0  0  0  0 38  0  0
    1.9555   -0.7989   -1.1482 C   0  0  0  0  0  0  0  0  0  9  0  0
    1.7307   -1.7463   -1.6020 H   0  0  0  0  0  0  0  0  0 14  0  0
    3.1408   -0.6372   -0.4579 C   0  0  0  0  0  0  0  0  0 10  0  0
    4.0433   -1.7713   -0.3759 N   0  0  0  0  0  0  0  0  0 11  0  0
    4.8279   -1.8268    0.5422 O   0  0  0  0  0  0  0  0  0 12  0  0
    3.9358   -2.5937   -1.2525 O   0  0  0  0  0  0  0  0  0 13  0  0
  1  2  1  0
  1  3  1  0
  1  4  1  0
  1  5  1  0
  5  6  1  0
  6  7  4  0
  7  8  1  0
  7  9  4  0
  9 10  1  0
  9 11  4  0
 11 12  1  0
 12 13  2  0
 12 14  1  0
 14 15  1  0
 15 16  1  0
 16 17  2  0
 17 18  1  0
 18 19  2  0
 18 20  1  0
 20 21  4  0
 21 22  1  0
 21 23  4  0
 23 24  1  0
 23 25  4  0
 25 26  1  0
 26 27  1  0
 25 28  4  0
 28 29  1  0
 28 30  4  0
 30 31  1  0
 17 32  1  0
 16 33  1  0
 15 34  2  0
 14 35  1  0
 11 36  4  0
 36 37  1  0
 36 38  4  0
 38 39  1  0
 39 40  1  0
 39 41  1  0
 38  6  4  0
 30 20  4  0
M  CHG  4  16   1  17   1  40  -1  41  -1
M  END
>  <sample_id>  (45)
train::COc1ccc(C(=O)NC(=S)NNC(=O)c2ccc(O)cc2)cc1[N+](=O)[O-]__gen0002

>  <partition>  (45)
BAT_EXTERNAL_CONFIRM

>  <method>  (45)
BA_seed193

>  <candidate>  (45)
primary

$$$$
train::COc1ccc(CN2CCc3ccccc3C2)c(OC)c1__gen0000
     RDKit          3D

 42 44  0  0  0  0  0  0  0  0999 V2000
   -0.2325   -4.2883    1.2656 C   0  0  0  0  0  0  0  0  0  0  0  0
    0.3895   -4.3834    2.1731 H   0  0  0  0  0  0  0  0  0  1  0  0
   -1.1006   -3.1865    1.3310 O   0  0  0  0  0  0  0  0  0  2  0  0
   -0.5546   -1.9343    1.3817 C   0  0  0  0  0  0  0  0  0  3  0  0
    0.7977   -1.6671    1.4457 C   0  0  0  0  0  0  0  0  0  4  0  0
    1.5338   -2.4462    1.4665 H   0  0  0  0  0  0  0  0  0 39  0  0
    1.2092   -0.3371    1.4551 C   0  0  0  0  0  0  0  0  0  5  0  0
    2.2671   -0.1256    1.5339 H   0  0  0  0  0  0  0  0  0 38  0  0
    0.3237    0.7174    1.4011 C   0  0  0  0  0  0  0  0  0  6  0  0
    0.8225    2.1340    1.3242 C   0  0  0  0  0  0  0  0  0 15  0  0
    1.1508    2.6311   -0.0089 N   0  0  0  0  0  0  0  0  0 16  0  0
    0.0529    3.0179   -0.8637 C   0  0  0  0  0  0  0  0  0 17  0  0
   -0.6418    3.6200   -0.2637 H   0  0  0  0  0  0  0  0  0 34  0  0
    0.4805    3.6494   -1.6456 H   0  0  0  0  0  0  0  0  0 35  0  0
   -0.7135    1.8509   -1.5152 C   0  0  0  0  0  0  0  0  0 18  0  0
   -1.5576    1.5486   -0.8992 H   0  0  0  0  0  0  0  0  0 32  0  0
   -1.1253    2.2034   -2.4651 H   0  0  0  0  0  0  0  0  0 33  0  0
    0.1246    0.6288   -1.7555 C   0  0  0  0  0  0  0  0  0 19  0  0
   -0.4379   -0.5031   -2.3207 C   0  0  0  0  0  0  0  0  0 20  0  0
   -1.4917   -0.4767   -2.5790 H   0  0  0  0  0  0  0  0  0 31  0  0
    0.2983   -1.6403   -2.5362 C   0  0  0  0  0  0  0  0  0 21  0  0
   -0.1578   -2.5089   -2.9769 H   0  0  0  0  0  0  0  0  0 30  0  0
    1.6473   -1.6480   -2.2114 C   0  0  0  0  0  0  0  0  0 22  0  0
    2.2341   -2.5364   -2.3899 H   0  0  0  0  0  0  0  0  0 29  0  0
    2.2300   -0.5182   -1.6485 C   0  0  0  0  0  0  0  0  0 23  0  0
    3.2751   -0.5409   -1.3729 H   0  0  0  0  0  0  0  0  0 28  0  0
    1.4780    0.6262   -1.4072 C   0  0  0  0  0  0  0  0  0 24  0  0
    2.0929    1.8314   -0.7520 C   0  0  0  0  0  0  0  0  0 25  0  0
    2.9108    1.5260   -0.1044 H   0  0  0  0  0  0  0  0  0 26  0  0
    2.5154    2.4887   -1.5332 H   0  0  0  0  0  0  0  0  0 27  0  0
    1.7428    2.2254    1.9221 H   0  0  0  0  0  0  0  0  0 36  0  0
    0.0815    2.8144    1.7448 H   0  0  0  0  0  0  0  0  0 37  0  0
   -1.0539    0.4352    1.4026 C   0  0  0  0  0  0  0  0  0  7  0  0
   -1.8997    1.4837    1.4264 O   0  0  0  0  0  0  0  0  0 10  0  0
   -3.2905    1.2319    1.4218 C   0  0  0  0  0  0  0  0  0 11  0  0
   -3.7790    2.2069    1.4357 H   0  0  0  0  0  0  0  0  0 12  0  0
   -3.6011    0.6562    2.2997 H   0  0  0  0  0  0  0  0  0 13  0  0
   -3.6072    0.6949    0.5105 H   0  0  0  0  0  0  0  0  0 14  0  0
   -1.4726   -0.8982    1.3753 C   0  0  0  0  0  0  0  0  0  8  0  0
   -2.5145   -1.1635    1.3476 H   0  0  0  0  0  0  0  0  0  9  0  0
    0.4281   -4.2429    0.3913 H   0  0  0  0  0  0  0  0  0 40  0  0
   -0.8550   -5.1771    1.1934 H   0  0  0  0  0  0  0  0  0 41  0  0
  1  2  1  0
  1  3  1  0
  3  4  1  0
  4  5  4  0
  5  6  1  0
  5  7  4  0
  7  8  1  0
  7  9  4  0
  9 10  1  0
 10 11  1  0
 11 12  1  0
 12 13  1  0
 12 14  1  0
 12 15  1  0
 15 16  1  0
 15 17  1  0
 15 18  1  0
 18 19  4  0
 19 20  1  0
 19 21  4  0
 21 22  1  0
 21 23  4  0
 23 24  1  0
 23 25  4  0
 25 26  1  0
 25 27  4  0
 27 28  1  0
 28 29  1  0
 28 30  1  0
 10 31  1  0
 10 32  1  0
  9 33  4  0
 33 34  1  0
 34 35  1  0
 35 36  1  0
 35 37  1  0
 35 38  1  0
 33 39  4  0
 39 40  1  0
  1 41  1  0
  1 42  1  0
 39  4  4  0
 28 11  1  0
 27 18  4  0
M  END
>  <sample_id>  (46)
train::COc1ccc(CN2CCc3ccccc3C2)c(OC)c1__gen0000

>  <partition>  (46)
BAT_EXTERNAL_CONFIRM

>  <method>  (46)
BA_seed193

>  <candidate>  (46)
primary

$$$$
train::COc1ccc(CN2CCc3ccccc3C2)c(OC)c1__gen0001
     RDKit          3D

 42 44  0  0  0  0  0  0  0  0999 V2000
    4.2423    0.1542    2.1577 C   0  0  0  0  0  0  0  0  0  0  0  0
    5.0024    0.3088    1.3830 H   0  0  0  0  0  0  0  0  0  1  0  0
    3.2386   -0.7389    1.7385 O   0  0  0  0  0  0  0  0  0  2  0  0
    2.4595   -0.3886    0.6693 C   0  0  0  0  0  0  0  0  0  3  0  0
    2.6210    0.7697   -0.0797 C   0  0  0  0  0  0  0  0  0  4  0  0
    3.3803    1.4922    0.1531 H   0  0  0  0  0  0  0  0  0 39  0  0
    1.7563    1.0006   -1.1358 C   0  0  0  0  0  0  0  0  0  5  0  0
    1.8660    1.9111   -1.7213 H   0  0  0  0  0  0  0  0  0 38  0  0
    0.7422    0.1200   -1.4679 C   0  0  0  0  0  0  0  0  0  6  0  0
   -0.2571    0.4741   -2.5529 C   0  0  0  0  0  0  0  0  0 15  0  0
   -1.3778    1.3164   -2.1416 N   0  0  0  0  0  0  0  0  0 16  0  0
   -2.6679    0.6775   -2.0821 C   0  0  0  0  0  0  0  0  0 17  0  0
   -2.8282    0.0931   -2.9961 H   0  0  0  0  0  0  0  0  0 34  0  0
   -3.4164    1.4693   -2.0577 H   0  0  0  0  0  0  0  0  0 35  0  0
   -2.8744   -0.2334   -0.8536 C   0  0  0  0  0  0  0  0  0 18  0  0
   -3.9291   -0.2536   -0.5682 H   0  0  0  0  0  0  0  0  0 32  0  0
   -2.6018   -1.2639   -1.1044 H   0  0  0  0  0  0  0  0  0 33  0  0
   -2.0565    0.1709    0.3338 C   0  0  0  0  0  0  0  0  0 19  0  0
   -2.0759   -0.6049    1.4898 C   0  0  0  0  0  0  0  0  0 20  0  0
   -2.7266   -1.4702    1.5350 H   0  0  0  0  0  0  0  0  0 31  0  0
   -1.2885   -0.2751    2.5863 C   0  0  0  0  0  0  0  0  0 21  0  0
   -1.3232   -0.8911    3.4652 H   0  0  0  0  0  0  0  0  0 30  0  0
   -0.4653    0.8311    2.5355 C   0  0  0  0  0  0  0  0  0 22  0  0
    0.1516    1.0779    3.3760 H   0  0  0  0  0  0  0  0  0 29  0  0
   -0.4338    1.6127    1.3957 C   0  0  0  0  0  0  0  0  0 23  0  0
    0.2082    2.4774    1.3509 H   0  0  0  0  0  0  0  0  0 28  0  0
   -1.2365    1.2942    0.3039 C   0  0  0  0  0  0  0  0  0 24  0  0
   -1.1918    2.1165   -0.9620 C   0  0  0  0  0  0  0  0  0 25  0  0
   -0.2402    2.6524   -1.0216 H   0  0  0  0  0  0  0  0  0 26  0  0
   -1.9910    2.8720   -0.9527 H   0  0  0  0  0  0  0  0  0 27  0  0
    0.2749    1.0257   -3.3315 H   0  0  0  0  0  0  0  0  0 36  0  0
   -0.6584   -0.4412   -2.9945 H   0  0  0  0  0  0  0  0  0 37  0  0
    0.6253   -1.0667   -0.7444 C   0  0  0  0  0  0  0  0  0  7  0  0
   -0.3235   -1.9514   -1.1539 O   0  0  0  0  0  0  0  0  0 10  0  0
   -0.4708   -3.1700   -0.4441 C   0  0  0  0  0  0  0  0  0 11  0  0
   -1.3133   -3.6763   -0.9135 H   0  0  0  0  0  0  0  0  0 12  0  0
    0.4253   -3.7848   -0.5079 H   0  0  0  0  0  0  0  0  0 13  0  0
   -0.7131   -2.9795    0.6126 H   0  0  0  0  0  0  0  0  0 14  0  0
    1.4964   -1.3230    0.3104 C   0  0  0  0  0  0  0  0  0  8  0  0
    1.4426   -2.2206    0.9079 H   0  0  0  0  0  0  0  0  0  9  0  0
    4.7121   -0.3052    3.0291 H   0  0  0  0  0  0  0  0  0 40  0  0
    3.8162    1.1208    2.4539 H   0  0  0  0  0  0  0  0  0 41  0  0
  1  2  1  0
  1  3  1  0
  3  4  1  0
  4  5  4  0
  5  6  1  0
  5  7  4  0
  7  8  1  0
  7  9  4  0
  9 10  1  0
 10 11  1  0
 11 12  1  0
 12 13  1  0
 12 14  1  0
 12 15  1  0
 15 16  1  0
 15 17  1  0
 15 18  1  0
 18 19  4  0
 19 20  1  0
 19 21  4  0
 21 22  1  0
 21 23  4  0
 23 24  1  0
 23 25  4  0
 25 26  1  0
 25 27  4  0
 27 28  1  0
 28 29  1  0
 28 30  1  0
 10 31  1  0
 10 32  1  0
  9 33  4  0
 33 34  1  0
 34 35  1  0
 35 36  1  0
 35 37  1  0
 35 38  1  0
 33 39  4  0
 39 40  1  0
  1 41  1  0
  1 42  1  0
 39  4  4  0
 28 11  1  0
 27 18  4  0
M  END
>  <sample_id>  (47)
train::COc1ccc(CN2CCc3ccccc3C2)c(OC)c1__gen0001

>  <partition>  (47)
BAT_EXTERNAL_CONFIRM

>  <method>  (47)
BA_seed193

>  <candidate>  (47)
primary

$$$$
train::COc1ccc(CN2CCc3ccccc3C2)c(OC)c1__gen0002
     RDKit          3D

 42 44  0  0  0  0  0  0  0  0999 V2000
    2.4943    5.4086    0.5792 C   0  0  0  0  0  0  0  0  0  0  0  0
    3.1965    6.1884    0.2968 H   0  0  0  0  0  0  0  0  0  1  0  0
    2.2459    4.6744   -0.6019 O   0  0  0  0  0  0  0  0  0  2  0  0
    1.3701    3.6240   -0.5539 C   0  0  0  0  0  0  0  0  0  3  0  0
    0.7287    3.1864    0.5860 C   0  0  0  0  0  0  0  0  0  4  0  0
    0.8687    3.6625    1.5366 H   0  0  0  0  0  0  0  0  0 39  0  0
   -0.1500    2.1035    0.4895 C   0  0  0  0  0  0  0  0  0  5  0  0
   -0.6480    1.7576    1.3788 H   0  0  0  0  0  0  0  0  0 38  0  0
   -0.3711    1.4518   -0.7070 C   0  0  0  0  0  0  0  0  0  6  0  0
   -1.3042    0.2851   -0.7530 C   0  0  0  0  0  0  0  0  0 15  0  0
   -0.9284   -0.7342    0.2120 N   0  0  0  0  0  0  0  0  0 16  0  0
    0.3488   -1.3403   -0.1093 C   0  0  0  0  0  0  0  0  0 17  0  0
    1.0547   -0.5416   -0.3447 H   0  0  0  0  0  0  0  0  0 34  0  0
    0.2666   -1.9977   -0.9969 H   0  0  0  0  0  0  0  0  0 35  0  0
    0.8298   -2.1464    1.0913 C   0  0  0  0  0  0  0  0  0 18  0  0
    1.0429   -1.4496    1.9091 H   0  0  0  0  0  0  0  0  0 32  0  0
    1.7629   -2.6560    0.8356 H   0  0  0  0  0  0  0  0  0 33  0  0
   -0.2158   -3.1123    1.5291 C   0  0  0  0  0  0  0  0  0 19  0  0
    0.1170   -4.2107    2.3147 C   0  0  0  0  0  0  0  0  0 20  0  0
    1.1533   -4.3709    2.5748 H   0  0  0  0  0  0  0  0  0 31  0  0
   -0.8362   -5.1147    2.7324 C   0  0  0  0  0  0  0  0  0 21  0  0
   -0.5618   -5.9553    3.3441 H   0  0  0  0  0  0  0  0  0 30  0  0
   -2.1544   -4.9093    2.3920 C   0  0  0  0  0  0  0  0  0 22  0  0
   -2.9258   -5.6024    2.7120 H   0  0  0  0  0  0  0  0  0 29  0  0
   -2.5077   -3.8163    1.6079 C   0  0  0  0  0  0  0  0  0 23  0  0
   -3.5414   -3.6618    1.3396 H   0  0  0  0  0  0  0  0  0 28  0  0
   -1.5505   -2.9174    1.1753 C   0  0  0  0  0  0  0  0  0 24  0  0
   -1.9632   -1.7554    0.3180 C   0  0  0  0  0  0  0  0  0 25  0  0
   -2.8555   -1.2940    0.7327 H   0  0  0  0  0  0  0  0  0 26  0  0
   -2.2236   -2.1538   -0.6877 H   0  0  0  0  0  0  0  0  0 27  0  0
   -1.3680   -0.1138   -1.7773 H   0  0  0  0  0  0  0  0  0 36  0  0
   -2.3183    0.6251   -0.4775 H   0  0  0  0  0  0  0  0  0 37  0  0
    0.2932    1.9095   -1.8490 C   0  0  0  0  0  0  0  0  0  7  0  0
    0.0365    1.2219   -3.0256 O   0  0  0  0  0  0  0  0  0 10  0  0
    0.6945    1.6394   -4.1856 C   0  0  0  0  0  0  0  0  0 11  0  0
    0.4278    2.6592   -4.4589 H   0  0  0  0  0  0  0  0  0 12  0  0
    1.7751    1.5446   -4.0973 H   0  0  0  0  0  0  0  0  0 13  0  0
    0.3404    0.9577   -4.9611 H   0  0  0  0  0  0  0  0  0 14  0  0
    1.1670    2.9785   -1.7627 C   0  0  0  0  0  0  0  0  0  8  0  0
    1.6833    3.3574   -2.6382 H   0  0  0  0  0  0  0  0  0  9  0  0
    2.9494    4.7648    1.3344 H   0  0  0  0  0  0  0  0  0 40  0  0
    1.5765    5.8534    0.9661 H   0  0  0  0  0  0  0  0  0 41  0  0
  1  2  1  0
  1  3  1  0
  3  4  1  0
  4  5  4  0
  5  6  1  0
  5  7  4  0
  7  8  1  0
  7  9  4  0
  9 10  1  0
 10 11  1  0
 11 12  1  0
 12 13  1  0
 12 14  1  0
 12 15  1  0
 15 16  1  0
 15 17  1  0
 15 18  1  0
 18 19  4  0
 19 20  1  0
 19 21  4  0
 21 22  1  0
 21 23  4  0
 23 24  1  0
 23 25  4  0
 25 26  1  0
 25 27  4  0
 27 28  1  0
 28 29  1  0
 28 30  1  0
 10 31  1  0
 10 32  1  0
  9 33  4  0
 33 34  1  0
 34 35  1  0
 35 36  1  0
 35 37  1  0
 35 38  1  0
 33 39  4  0
 39 40  1  0
  1 41  1  0
  1 42  1  0
 39  4  4  0
 28 11  1  0
 27 18  4  0
M  END
>  <sample_id>  (48)
train::COc1ccc(CN2CCc3ccccc3C2)c(OC)c1__gen0002

>  <partition>  (48)
BAT_EXTERNAL_CONFIRM

>  <method>  (48)
BA_seed193

>  <candidate>  (48)
primary

$$$$
train::O=S(=O)(c1ccc(F)cc1)c1nc(-c2ccccc2F)oc1N1CCCCC1__gen0000
     RDKit          3D

 46 49  0  0  0  0  0  0  0  0999 V2000
    1.0796    0.0675   -2.8989 O   0  0  0  0  0  0  0  0  0  0  0  0
    0.6471   -1.0801   -2.1587 S   0  0  2  0  0  6  0  0  0  1  0  0
   -0.2815   -1.9891   -2.8093 O   0  0  0  0  0  0  0  0  0  2  0  0
   -0.1429   -0.4508   -0.6844 C   0  0  0  0  0  0  0  0  0  3  0  0
   -1.2854    0.2948   -0.4337 C   0  0  0  0  0  0  0  0  0  4  0  0
   -2.3052    0.6933   -1.2042 N   0  0  0  0  0  0  0  0  0  5  0  0
   -3.1653    1.7617   -0.7358 C   0  0  0  0  0  0  0  0  0  6  0  0
   -3.2208    1.7283    0.3611 H   0  0  0  0  0  0  0  0  0  7  0  0
   -4.1635    1.5869   -1.1409 H   0  0  0  0  0  0  0  0  0 20  0  0
   -2.6383    3.1151   -1.2041 C   0  0  0  0  0  0  0  0  0  8  0  0
   -1.6450    3.2780   -0.7711 H   0  0  0  0  0  0  0  0  0 18  0  0
   -3.2966    3.9115   -0.8616 H   0  0  0  0  0  0  0  0  0 19  0  0
   -2.5341    3.1243   -2.7235 C   0  0  0  0  0  0  0  0  0  9  0  0
   -2.1040    4.0643   -3.0715 H   0  0  0  0  0  0  0  0  0 16  0  0
   -3.5298    3.0352   -3.1611 H   0  0  0  0  0  0  0  0  0 17  0  0
   -1.6627    1.9537   -3.1972 C   0  0  0  0  0  0  0  0  0 10  0  0
   -1.6500    1.9112   -4.2877 H   0  0  0  0  0  0  0  0  0 11  0  0
   -0.6325    2.0796   -2.8632 H   0  0  0  0  0  0  0  0  0 15  0  0
   -2.2058    0.6358   -2.6529 C   0  0  0  0  0  0  0  0  0 12  0  0
   -1.5831   -0.1976   -2.9474 H   0  0  0  0  0  0  0  0  0 13  0  0
   -3.2230    0.4623   -3.0286 H   0  0  0  0  0  0  0  0  0 14  0  0
   -1.3192    0.5389    0.9008 O   0  0  0  0  0  0  0  0  0 21  0  0
   -0.2229   -0.0738    1.4065 C   0  0  0  0  0  0  0  0  0 22  0  0
    0.0760   -0.0238    2.8294 C   0  0  0  0  0  0  0  0  0 24  0  0
   -0.7555    0.6083    3.7580 C   0  0  0  0  0  0  0  0  0 25  0  0
   -1.8853    1.2227    3.3493 F   0  0  0  0  0  0  0  0  0 34  0  0
   -0.4622    0.6279    5.1085 C   0  0  0  0  0  0  0  0  0 26  0  0
   -1.1234    1.1350    5.7849 H   0  0  0  0  0  0  0  0  0 33  0  0
    0.6942    0.0042    5.5498 C   0  0  0  0  0  0  0  0  0 27  0  0
    0.9382    0.0270    6.6027 H   0  0  0  0  0  0  0  0  0 32  0  0
    1.5440   -0.6263    4.6429 C   0  0  0  0  0  0  0  0  0 28  0  0
    2.4379   -1.1095    5.0015 H   0  0  0  0  0  0  0  0  0 31  0  0
    1.2272   -0.6466    3.2997 C   0  0  0  0  0  0  0  0  0 29  0  0
    1.8607   -1.1339    2.5811 H   0  0  0  0  0  0  0  0  0 30  0  0
    0.5033   -0.6531    0.5072 N   0  0  0  0  0  0  0  0  0 23  0  0
    2.0257   -1.9472   -1.4782 C   0  0  0  0  0  0  0  0  0 35  0  0
    3.1598   -1.2282   -1.1219 C   0  0  0  0  0  0  0  0  0 36  0  0
    3.1699   -0.1646   -1.3095 H   0  0  0  0  0  0  0  0  0 45  0  0
    4.2319   -1.8802   -0.5437 C   0  0  0  0  0  0  0  0  0 37  0  0
    5.1181   -1.3620   -0.2486 H   0  0  0  0  0  0  0  0  0 44  0  0
    4.1371   -3.2481   -0.3395 C   0  0  0  0  0  0  0  0  0 38  0  0
    5.1827   -3.8894    0.2307 F   0  0  0  0  0  0  0  0  0 43  0  0
    3.0176   -3.9845   -0.6947 C   0  0  0  0  0  0  0  0  0 39  0  0
    2.9905   -5.0401   -0.5224 H   0  0  0  0  0  0  0  0  0 42  0  0
    1.9449   -3.3102   -1.2609 C   0  0  0  0  0  0  0  0  0 40  0  0
    1.0513   -3.8285   -1.5589 H   0  0  0  0  0  0  0  0  0 41  0  0
  1  2  2  0
  2  3  2  0
  2  4  1  1
  4  5  4  0
  5  6  1  0
  6  7  1  0
  7  8  1  0
  7  9  1  0
  7 10  1  0
 10 11  1  0
 10 12  1  0
 10 13  1  0
 13 14  1  0
 13 15  1  0
 13 16  1  0
 16 17  1  0
 16 18  1  0
 16 19  1  0
 19 20  1  0
 19 21  1  0
  5 22  4  0
 22 23  4  0
 23 24  1  0
 24 25  4  0
 25 26  1  0
 25 27  4  0
 27 28  1  0
 27 29  4  0
 29 30  1  0
 29 31  4  0
 31 32  1  0
 31 33  4  0
 33 34  1  0
 23 35  4  0
  2 36  1  0
 36 37  4  0
 37 38  1  0
 37 39  4  0
 39 40  1  0
 39 41  4  0
 41 42  1  0
 41 43  4  0
 43 44  1  0
 43 45  4  0
 45 46  1  0
 35  4  4  0
 45 36  4  0
 19  6  1  0
 33 24  4  0
M  END
>  <sample_id>  (49)
train::O=S(=O)(c1ccc(F)cc1)c1nc(-c2ccccc2F)oc1N1CCCCC1__gen0000

>  <partition>  (49)
BAT_EXTERNAL_CONFIRM

>  <method>  (49)
BA_seed193

>  <candidate>  (49)
primary

$$$$
train::O=S(=O)(c1ccc(F)cc1)c1nc(-c2ccccc2F)oc1N1CCCCC1__gen0001
     RDKit          3D

 46 49  0  0  0  0  0  0  0  0999 V2000
   -1.6583    1.4257   -2.2032 O   0  0  0  0  0  0  0  0  0  0  0  0
   -1.6369    1.7202   -0.7898 S   0  0  2  0  0  6  0  0  0  1  0  0
   -1.6735    3.1011   -0.4005 O   0  0  0  0  0  0  0  0  0  2  0  0
   -0.1611    0.9830   -0.0798 C   0  0  0  0  0  0  0  0  0  3  0  0
    0.6473   -0.1039   -0.4449 C   0  0  0  0  0  0  0  0  0  4  0  0
    0.5435   -1.0706   -1.3340 N   0  0  0  0  0  0  0  0  0  5  0  0
   -0.6741   -1.3988   -2.0120 C   0  0  0  0  0  0  0  0  0  6  0  0
   -0.9461   -2.4462   -1.8273 H   0  0  0  0  0  0  0  0  0  7  0  0
   -1.4807   -0.7551   -1.6793 H   0  0  0  0  0  0  0  0  0 20  0  0
   -0.4658   -1.2085   -3.5222 C   0  0  0  0  0  0  0  0  0  8  0  0
   -1.4253   -1.3862   -4.0398 H   0  0  0  0  0  0  0  0  0 18  0  0
   -0.2037   -0.1808   -3.7038 H   0  0  0  0  0  0  0  0  0 19  0  0
    0.5933   -2.1845   -4.0552 C   0  0  0  0  0  0  0  0  0  9  0  0
    1.1578   -1.6517   -4.8145 H   0  0  0  0  0  0  0  0  0 16  0  0
    0.1719   -3.0624   -4.5263 H   0  0  0  0  0  0  0  0  0 17  0  0
    1.5076   -2.6716   -2.9198 C   0  0  0  0  0  0  0  0  0 10  0  0
    2.4529   -3.0345   -3.3151 H   0  0  0  0  0  0  0  0  0 11  0  0
    1.0313   -3.5221   -2.3829 H   0  0  0  0  0  0  0  0  0 15  0  0
    1.7938   -1.5868   -1.9096 C   0  0  0  0  0  0  0  0  0 12  0  0
    2.3924   -1.9892   -1.0673 H   0  0  0  0  0  0  0  0  0 13  0  0
    2.3466   -0.7766   -2.3734 H   0  0  0  0  0  0  0  0  0 14  0  0
    1.6865   -0.0866    0.4171 O   0  0  0  0  0  0  0  0  0 21  0  0
    1.4774    0.9685    1.2359 C   0  0  0  0  0  0  0  0  0 22  0  0
    2.4208    1.2829    2.3033 C   0  0  0  0  0  0  0  0  0 24  0  0
    3.5770    0.5406    2.5219 C   0  0  0  0  0  0  0  0  0 25  0  0
    3.8838   -0.5178    1.7409 F   0  0  0  0  0  0  0  0  0 34  0  0
    4.4594    0.8494    3.5359 C   0  0  0  0  0  0  0  0  0 26  0  0
    5.3471    0.2651    3.6705 H   0  0  0  0  0  0  0  0  0 33  0  0
    4.1906    1.9380    4.3608 C   0  0  0  0  0  0  0  0  0 27  0  0
    4.8602    2.1855    5.1558 H   0  0  0  0  0  0  0  0  0 32  0  0
    3.0350    2.6723    4.1681 C   0  0  0  0  0  0  0  0  0 28  0  0
    2.8116    3.5220    4.8050 H   0  0  0  0  0  0  0  0  0 31  0  0
    2.1639    2.3497    3.1438 C   0  0  0  0  0  0  0  0  0 29  0  0
    1.2674    2.9270    2.9716 H   0  0  0  0  0  0  0  0  0 30  0  0
    0.3868    1.6239    0.9763 N   0  0  0  0  0  0  0  0  0 23  0  0
   -2.9640    0.8746    0.0116 C   0  0  0  0  0  0  0  0  0 35  0  0
   -3.0527    0.9370    1.3797 C   0  0  0  0  0  0  0  0  0 36  0  0
   -2.2979    1.5008    1.9216 H   0  0  0  0  0  0  0  0  0 45  0  0
   -4.0631    0.2856    2.0326 C   0  0  0  0  0  0  0  0  0 37  0  0
   -4.1618    0.3193    3.1156 H   0  0  0  0  0  0  0  0  0 44  0  0
   -4.9959   -0.4197    1.2986 C   0  0  0  0  0  0  0  0  0 38  0  0
   -5.9973   -1.0651    1.9232 F   0  0  0  0  0  0  0  0  0 43  0  0
   -4.9297   -0.4789   -0.1133 C   0  0  0  0  0  0  0  0  0 39  0  0
   -5.6921   -1.0316   -0.6291 H   0  0  0  0  0  0  0  0  0 42  0  0
   -3.9159    0.1871   -0.7346 C   0  0  0  0  0  0  0  0  0 40  0  0
   -3.8098    0.1698   -1.8122 H   0  0  0  0  0  0  0  0  0 41  0  0
  1  2  2  0
  2  3  2  0
  2  4  1  1
  4  5  4  0
  5  6  1  0
  6  7  1  0
  7  8  1  0
  7  9  1  0
  7 10  1  0
 10 11  1  0
 10 12  1  0
 10 13  1  0
 13 14  1  0
 13 15  1  0
 13 16  1  0
 16 17  1  0
 16 18  1  0
 16 19  1  0
 19 20  1  0
 19 21  1  0
  5 22  4  0
 22 23  4  0
 23 24  1  0
 24 25  4  0
 25 26  1  0
 25 27  4  0
 27 28  1  0
 27 29  4  0
 29 30  1  0
 29 31  4  0
 31 32  1  0
 31 33  4  0
 33 34  1  0
 23 35  4  0
  2 36  1  0
 36 37  4  0
 37 38  1  0
 37 39  4  0
 39 40  1  0
 39 41  4  0
 41 42  1  0
 41 43  4  0
 43 44  1  0
 43 45  4  0
 45 46  1  0
 35  4  4  0
 45 36  4  0
 19  6  1  0
 33 24  4  0
M  END
>  <sample_id>  (50)
train::O=S(=O)(c1ccc(F)cc1)c1nc(-c2ccccc2F)oc1N1CCCCC1__gen0001

>  <partition>  (50)
BAT_EXTERNAL_CONFIRM

>  <method>  (50)
BA_seed193

>  <candidate>  (50)
primary

$$$$
train::O=S(=O)(c1ccc(F)cc1)c1nc(-c2ccccc2F)oc1N1CCCCC1__gen0002
     RDKit          3D

 46 49  0  0  0  0  0  0  0  0999 V2000
    1.6502   -1.6892    2.5144 O   0  0  0  0  0  0  0  0  0  0  0  0
    0.3263   -1.4233    2.0229 S   0  0  2  0  0  6  0  0  0  1  0  0
   -0.5425   -2.5069    1.6932 O   0  0  0  0  0  0  0  0  0  2  0  0
    0.4925   -0.4224    0.5373 C   0  0  0  0  0  0  0  0  0  3  0  0
    1.0381   -0.6501   -0.7024 C   0  0  0  0  0  0  0  0  0  4  0  0
    1.8218   -1.6262   -1.2002 N   0  0  0  0  0  0  0  0  0  5  0  0
    1.8653   -2.9107   -0.5293 C   0  0  0  0  0  0  0  0  0  6  0  0
    1.8067   -2.7588    0.5473 H   0  0  0  0  0  0  0  0  0  7  0  0
    2.8280   -3.3735   -0.7646 H   0  0  0  0  0  0  0  0  0 20  0  0
    0.7272   -3.8141   -1.0216 C   0  0  0  0  0  0  0  0  0  8  0  0
   -0.2217   -3.3722   -0.7184 H   0  0  0  0  0  0  0  0  0 18  0  0
    0.8047   -4.7786   -0.5336 H   0  0  0  0  0  0  0  0  0 19  0  0
    0.8036   -3.9726   -2.5399 C   0  0  0  0  0  0  0  0  0  9  0  0
   -0.0420   -4.5624   -2.9034 H   0  0  0  0  0  0  0  0  0 16  0  0
    1.7232   -4.5053   -2.7906 H   0  0  0  0  0  0  0  0  0 17  0  0
    0.8074   -2.6025   -3.2132 C   0  0  0  0  0  0  0  0  0 10  0  0
   -0.1483   -2.0981   -3.0229 H   0  0  0  0  0  0  0  0  0 11  0  0
    0.9279   -2.7155   -4.2882 H   0  0  0  0  0  0  0  0  0 15  0  0
    1.9424   -1.7493   -2.6452 C   0  0  0  0  0  0  0  0  0 12  0  0
    1.9324   -0.7461   -3.0862 H   0  0  0  0  0  0  0  0  0 13  0  0
    2.9052   -2.2155   -2.8591 H   0  0  0  0  0  0  0  0  0 14  0  0
    0.7655    0.4409   -1.4705 O   0  0  0  0  0  0  0  0  0 21  0  0
    0.0782    1.2821   -0.6611 C   0  0  0  0  0  0  0  0  0 22  0  0
   -0.3863    2.5563   -1.1285 C   0  0  0  0  0  0  0  0  0 24  0  0
   -0.1841    3.0090   -2.4446 C   0  0  0  0  0  0  0  0  0 25  0  0
    0.4927    2.2419   -3.3220 F   0  0  0  0  0  0  0  0  0 34  0  0
   -0.6339    4.2436   -2.8734 C   0  0  0  0  0  0  0  0  0 26  0  0
   -0.4439    4.5419   -3.8873 H   0  0  0  0  0  0  0  0  0 33  0  0
   -1.3206    5.0616   -1.9945 C   0  0  0  0  0  0  0  0  0 27  0  0
   -1.6883    6.0187   -2.3207 H   0  0  0  0  0  0  0  0  0 32  0  0
   -1.5502    4.6249   -0.6906 C   0  0  0  0  0  0  0  0  0 28  0  0
   -2.0884    5.2694    0.0001 H   0  0  0  0  0  0  0  0  0 31  0  0
   -1.0977    3.4015   -0.2689 C   0  0  0  0  0  0  0  0  0 29  0  0
   -1.2494    3.0558    0.7450 H   0  0  0  0  0  0  0  0  0 30  0  0
   -0.1251    0.7942    0.5311 N   0  0  0  0  0  0  0  0  0 23  0  0
   -0.5227   -0.3087    3.1438 C   0  0  0  0  0  0  0  0  0 35  0  0
   -1.8948   -0.2952    3.1583 C   0  0  0  0  0  0  0  0  0 36  0  0
   -2.4362   -0.9651    2.5223 H   0  0  0  0  0  0  0  0  0 45  0  0
   -2.5578    0.5881    4.0034 C   0  0  0  0  0  0  0  0  0 37  0  0
   -3.6278    0.6420    4.0518 H   0  0  0  0  0  0  0  0  0 44  0  0
   -1.7992    1.4361    4.8031 C   0  0  0  0  0  0  0  0  0 38  0  0
   -2.4322    2.2929    5.6096 F   0  0  0  0  0  0  0  0  0 43  0  0
   -0.4170    1.4242    4.7730 C   0  0  0  0  0  0  0  0  0 39  0  0
    0.1350    2.1100    5.4153 H   0  0  0  0  0  0  0  0  0 42  0  0
    0.2321    0.5392    3.9248 C   0  0  0  0  0  0  0  0  0 40  0  0
    1.3037    0.4880    3.8843 H   0  0  0  0  0  0  0  0  0 41  0  0
  1  2  2  0
  2  3  2  0
  2  4  1  6
  4  5  4  0
  5  6  1  0
  6  7  1  0
  7  8  1  0
  7  9  1  0
  7 10  1  0
 10 11  1  0
 10 12  1  0
 10 13  1  0
 13 14  1  0
 13 15  1  0
 13 16  1  0
 16 17  1  0
 16 18  1  0
 16 19  1  0
 19 20  1  0
 19 21  1  0
  5 22  4  0
 22 23  4  0
 23 24  1  0
 24 25  4  0
 25 26  1  0
 25 27  4  0
 27 28  1  0
 27 29  4  0
 29 30  1  0
 29 31  4  0
 31 32  1  0
 31 33  4  0
 33 34  1  0
 23 35  4  0
  2 36  1  0
 36 37  4  0
 37 38  1  0
 37 39  4  0
 39 40  1  0
 39 41  4  0
 41 42  1  0
 41 43  4  0
 43 44  1  0
 43 45  4  0
 45 46  1  0
 35  4  4  0
 45 36  4  0
 19  6  1  0
 33 24  4  0
M  END
>  <sample_id>  (51)
train::O=S(=O)(c1ccc(F)cc1)c1nc(-c2ccccc2F)oc1N1CCCCC1__gen0002

>  <partition>  (51)
BAT_EXTERNAL_CONFIRM

>  <method>  (51)
BA_seed193

>  <candidate>  (51)
primary

$$$$
train::O=C(NCC1CCN(S(=O)(=O)c2ccccc2)CC1)Nc1ccc(F)cc1__gen0000
     RDKit          3D

 49 51  0  0  0  0  0  0  0  0999 V2000
   -1.4835    2.0370   -3.0887 O   0  0  0  0  0  0  0  0  0  0  0  0
   -1.0220    1.0284   -2.5750 C   0  0  0  0  0  0  0  0  0  1  0  0
   -1.7635    0.2394   -1.7509 N   0  0  0  0  0  0  0  0  0  2  0  0
   -1.2637   -0.5208   -1.2919 H   0  0  0  0  0  0  0  0  0  3  0  0
   -3.0073    0.7156   -1.1471 C   0  0  0  0  0  0  0  0  0  4  0  0
   -3.0618    1.7857   -1.3299 H   0  0  0  0  0  0  0  0  0  5  0  0
   -3.8606    0.2270   -1.6279 H   0  0  0  0  0  0  0  0  0  6  0  0
   -3.0110    0.4082    0.3565 C   0  0  1  0  0  0  0  0  0  7  0  0
   -3.8926    0.8783    0.8039 H   0  0  0  0  0  0  0  0  0 35  0  0
   -3.1227   -1.1050    0.5640 C   0  0  0  0  0  0  0  0  0  8  0  0
   -4.1367   -1.4315    0.3106 H   0  0  0  0  0  0  0  0  0 33  0  0
   -2.4349   -1.6388   -0.0849 H   0  0  0  0  0  0  0  0  0 34  0  0
   -2.7985   -1.5158    1.9899 C   0  0  0  0  0  0  0  0  0  9  0  0
   -2.7765   -2.6135    2.0643 H   0  0  0  0  0  0  0  0  0 31  0  0
   -3.5412   -1.1384    2.6976 H   0  0  0  0  0  0  0  0  0 32  0  0
   -1.5014   -1.0246    2.3775 N   0  0  0  0  0  0  0  0  0 10  0  0
   -0.2242   -1.7893    1.5915 S   0  0  1  0  0  6  0  0  0 11  0  0
   -0.5290   -3.1848    1.5450 O   0  0  0  0  0  0  0  0  0 12  0  0
    0.1441   -1.1550    0.3489 O   0  0  0  0  0  0  0  0  0 13  0  0
    1.0691   -1.4945    2.7913 C   0  0  0  0  0  0  0  0  0 14  0  0
    2.1006   -0.6156    2.5169 C   0  0  0  0  0  0  0  0  0 15  0  0
    2.1335   -0.1232    1.5573 H   0  0  0  0  0  0  0  0  0 24  0  0
    3.0712   -0.3870    3.4826 C   0  0  0  0  0  0  0  0  0 16  0  0
    3.8816    0.2998    3.2723 H   0  0  0  0  0  0  0  0  0 23  0  0
    3.0025   -1.0326    4.7022 C   0  0  0  0  0  0  0  0  0 17  0  0
    3.7551   -0.8571    5.4425 H   0  0  0  0  0  0  0  0  0 22  0  0
    1.9698   -1.9185    4.9628 C   0  0  0  0  0  0  0  0  0 18  0  0
    1.9228   -2.4315    5.9132 H   0  0  0  0  0  0  0  0  0 21  0  0
    0.9998   -2.1496    4.0070 C   0  0  0  0  0  0  0  0  0 19  0  0
    0.1765   -2.8363    4.1765 H   0  0  0  0  0  0  0  0  0 20  0  0
   -1.4378    0.4190    2.3683 C   0  0  0  0  0  0  0  0  0 25  0  0
   -2.1408    0.7703    3.1235 H   0  0  0  0  0  0  0  0  0 29  0  0
   -0.4341    0.7039    2.6822 H   0  0  0  0  0  0  0  0  0 30  0  0
   -1.7670    1.0234    0.9896 C   0  0  0  0  0  0  0  0  0 26  0  0
   -0.9060    0.8740    0.3391 H   0  0  0  0  0  0  0  0  0 27  0  0
   -1.8946    2.1058    1.1055 H   0  0  0  0  0  0  0  0  0 28  0  0
    0.2261    0.5337   -2.7688 N   0  0  0  0  0  0  0  0  0 36  0  0
    1.2356    1.0317   -3.6047 C   0  0  0  0  0  0  0  0  0 37  0  0
    1.0370    2.1208   -4.4509 C   0  0  0  0  0  0  0  0  0 38  0  0
    0.0841    2.6283   -4.4533 H   0  0  0  0  0  0  0  0  0 47  0  0
    2.0686    2.5684   -5.2596 C   0  0  0  0  0  0  0  0  0 39  0  0
    1.9241    3.4097   -5.9130 H   0  0  0  0  0  0  0  0  0 46  0  0
    3.2877    1.9127   -5.2306 C   0  0  0  0  0  0  0  0  0 40  0  0
    4.2860    2.3460   -6.0189 F   0  0  0  0  0  0  0  0  0 45  0  0
    3.5108    0.8402   -4.3942 C   0  0  0  0  0  0  0  0  0 41  0  0
    4.4734    0.3447   -4.3971 H   0  0  0  0  0  0  0  0  0 44  0  0
    2.4865    0.3978   -3.5828 C   0  0  0  0  0  0  0  0  0 42  0  0
    2.6401   -0.4485   -2.9322 H   0  0  0  0  0  0  0  0  0 43  0  0
    0.5244   -0.2378   -2.1800 H   0  0  0  0  0  0  0  0  0 48  0  0
  1  2  2  0
  2  3  1  0
  3  4  1  0
  3  5  1  0
  5  6  1  0
  5  7  1  0
  5  8  1  0
  8  9  1  1
  8 10  1  0
 10 11  1  0
 10 12  1  0
 10 13  1  0
 13 14  1  0
 13 15  1  0
 13 16  1  0
 16 17  1  0
 17 18  2  0
 17 19  2  0
 17 20  1  1
 20 21  4  0
 21 22  1  0
 21 23  4  0
 23 24  1  0
 23 25  4  0
 25 26  1  0
 25 27  4  0
 27 28  1  0
 27 29  4  0
 29 30  1  0
 16 31  1  0
 31 32  1  0
 31 33  1  0
 31 34  1  0
 34 35  1  0
 34 36  1  0
  2 37  1  0
 37 38  1  0
 38 39  4  0
 39 40  1  0
 39 41  4  0
 41 42  1  0
 41 43  4  0
 43 44  1  0
 43 45  4  0
 45 46  1  0
 45 47  4  0
 47 48  1  0
 37 49  1  0
 34  8  1  0
 47 38  4  0
 29 20  4  0
M  END
>  <sample_id>  (52)
train::O=C(NCC1CCN(S(=O)(=O)c2ccccc2)CC1)Nc1ccc(F)cc1__gen0000

>  <partition>  (52)
BAT_EXTERNAL_CONFIRM

>  <method>  (52)
BA_seed193

>  <candidate>  (52)
primary

$$$$
train::O=C(NCC1CCN(S(=O)(=O)c2ccccc2)CC1)Nc1ccc(F)cc1__gen0001
     RDKit          3D

 49 51  0  0  0  0  0  0  0  0999 V2000
    0.5108    0.2463   -3.9142 O   0  0  0  0  0  0  0  0  0  0  0  0
    0.2198    0.8132   -2.8834 C   0  0  0  0  0  0  0  0  0  1  0  0
    1.1732    1.2872   -2.0043 N   0  0  0  0  0  0  0  0  0  2  0  0
    0.8045    1.6011   -1.1112 H   0  0  0  0  0  0  0  0  0  3  0  0
    2.5109    0.7539   -2.0156 C   0  0  0  0  0  0  0  0  0  4  0  0
    2.6293    0.2579   -2.9926 H   0  0  0  0  0  0  0  0  0  5  0  0
    3.2248    1.5753   -1.9533 H   0  0  0  0  0  0  0  0  0  6  0  0
    2.7465   -0.2480   -0.8721 C   0  0  1  0  0  0  0  0  0  7  0  0
    3.7285   -0.7164   -1.0059 H   0  0  0  0  0  0  0  0  0 35  0  0
    2.7451    0.5080    0.4534 C   0  0  0  0  0  0  0  0  0  8  0  0
    1.9336    1.2324    0.4864 H   0  0  0  0  0  0  0  0  0 33  0  0
    3.6758    1.0883    0.5347 H   0  0  0  0  0  0  0  0  0 34  0  0
    2.5920   -0.4101    1.6705 C   0  0  0  0  0  0  0  0  0  9  0  0
    2.4108    0.1776    2.5761 H   0  0  0  0  0  0  0  0  0 31  0  0
    3.5015   -0.9944    1.8258 H   0  0  0  0  0  0  0  0  0 32  0  0
    1.5019   -1.3360    1.5154 N   0  0  0  0  0  0  0  0  0 10  0  0
   -0.0315   -0.6643    1.6501 S   0  0  2  0  0  6  0  0  0 11  0  0
   -0.9761   -1.6883    1.3176 O   0  0  0  0  0  0  0  0  0 12  0  0
   -0.1609    0.5936    0.9632 O   0  0  0  0  0  0  0  0  0 13  0  0
   -0.0703   -0.3458    3.4137 C   0  0  0  0  0  0  0  0  0 14  0  0
   -0.2102    0.9449    3.8862 C   0  0  0  0  0  0  0  0  0 15  0  0
   -0.3113    1.7487    3.1826 H   0  0  0  0  0  0  0  0  0 24  0  0
   -0.2212    1.1578    5.2527 C   0  0  0  0  0  0  0  0  0 16  0  0
   -0.3488    2.1564    5.6508 H   0  0  0  0  0  0  0  0  0 23  0  0
   -0.1019    0.0799    6.1270 C   0  0  0  0  0  0  0  0  0 17  0  0
   -0.1121    0.2602    7.1932 H   0  0  0  0  0  0  0  0  0 22  0  0
    0.0494   -1.2045    5.6322 C   0  0  0  0  0  0  0  0  0 18  0  0
    0.1477   -2.0343    6.3188 H   0  0  0  0  0  0  0  0  0 21  0  0
    0.0655   -1.4240    4.2642 C   0  0  0  0  0  0  0  0  0 19  0  0
    0.1687   -2.4167    3.8528 H   0  0  0  0  0  0  0  0  0 20  0  0
    1.6569   -2.1842    0.3592 C   0  0  0  0  0  0  0  0  0 25  0  0
    0.8124   -2.8739    0.3343 H   0  0  0  0  0  0  0  0  0 29  0  0
    2.5791   -2.7551    0.4666 H   0  0  0  0  0  0  0  0  0 30  0  0
    1.6797   -1.3465   -0.9174 C   0  0  0  0  0  0  0  0  0 26  0  0
    1.8471   -1.9823   -1.7892 H   0  0  0  0  0  0  0  0  0 27  0  0
    0.6904   -0.9044   -1.0171 H   0  0  0  0  0  0  0  0  0 28  0  0
   -1.0575    1.1269   -2.4835 N   0  0  0  0  0  0  0  0  0 36  0  0
   -2.2582    0.8560   -3.1444 C   0  0  0  0  0  0  0  0  0 37  0  0
   -2.3145    0.3183   -4.4274 C   0  0  0  0  0  0  0  0  0 38  0  0
   -1.4006    0.0664   -4.9291 H   0  0  0  0  0  0  0  0  0 47  0  0
   -3.5430    0.0802   -5.0183 C   0  0  0  0  0  0  0  0  0 39  0  0
   -3.5988   -0.3535   -6.0115 H   0  0  0  0  0  0  0  0  0 46  0  0
   -4.7012    0.3999   -4.3445 C   0  0  0  0  0  0  0  0  0 40  0  0
   -5.8912    0.1741   -4.9289 F   0  0  0  0  0  0  0  0  0 45  0  0
   -4.6686    0.9489   -3.0724 C   0  0  0  0  0  0  0  0  0 41  0  0
   -5.5927    1.1782   -2.5725 H   0  0  0  0  0  0  0  0  0 44  0  0
   -3.4483    1.1688   -2.4786 C   0  0  0  0  0  0  0  0  0 42  0  0
   -3.4005    1.5919   -1.4869 H   0  0  0  0  0  0  0  0  0 43  0  0
   -1.1867    1.4903   -1.5527 H   0  0  0  0  0  0  0  0  0 48  0  0
  1  2  2  0
  2  3  1  0
  3  4  1  0
  3  5  1  0
  5  6  1  0
  5  7  1  0
  5  8  1  0
  8  9  1  6
  8 10  1  0
 10 11  1  0
 10 12  1  0
 10 13  1  0
 13 14  1  0
 13 15  1  0
 13 16  1  0
 16 17  1  0
 17 18  2  0
 17 19  2  0
 17 20  1  6
 20 21  4  0
 21 22  1  0
 21 23  4  0
 23 24  1  0
 23 25  4  0
 25 26  1  0
 25 27  4  0
 27 28  1  0
 27 29  4  0
 29 30  1  0
 16 31  1  0
 31 32  1  0
 31 33  1  0
 31 34  1  0
 34 35  1  0
 34 36  1  0
  2 37  1  0
 37 38  1  0
 38 39  4  0
 39 40  1  0
 39 41  4  0
 41 42  1  0
 41 43  4  0
 43 44  1  0
 43 45  4  0
 45 46  1  0
 45 47  4  0
 47 48  1  0
 37 49  1  0
 34  8  1  0
 47 38  4  0
 29 20  4  0
M  END
>  <sample_id>  (53)
train::O=C(NCC1CCN(S(=O)(=O)c2ccccc2)CC1)Nc1ccc(F)cc1__gen0001

>  <partition>  (53)
BAT_EXTERNAL_CONFIRM

>  <method>  (53)
BA_seed193

>  <candidate>  (53)
primary

$$$$
train::O=C(NCC1CCN(S(=O)(=O)c2ccccc2)CC1)Nc1ccc(F)cc1__gen0002
     RDKit          3D

 49 51  0  0  0  0  0  0  0  0999 V2000
    1.6934   -2.7540   -0.6586 O   0  0  0  0  0  0  0  0  0  0  0  0
    1.5708   -1.7598   -1.3246 C   0  0  0  0  0  0  0  0  0  1  0  0
    2.5383   -0.7936   -1.4551 N   0  0  0  0  0  0  0  0  0  2  0  0
    2.1856    0.0771   -1.8478 H   0  0  0  0  0  0  0  0  0  3  0  0
    3.5837   -0.6668   -0.4556 C   0  0  0  0  0  0  0  0  0  4  0  0
    3.6885   -1.6498    0.0033 H   0  0  0  0  0  0  0  0  0  5  0  0
    4.5205   -0.4180   -0.9681 H   0  0  0  0  0  0  0  0  0  6  0  0
    3.2418    0.3899    0.5961 C   0  0  1  0  0  0  0  0  0  7  0  0
    4.0392    0.3914    1.3500 H   0  0  0  0  0  0  0  0  0 35  0  0
    3.1704    1.7967   -0.0300 C   0  0  0  0  0  0  0  0  0  8  0  0
    2.6622    1.7554   -0.9878 H   0  0  0  0  0  0  0  0  0 33  0  0
    4.1871    2.1507   -0.2250 H   0  0  0  0  0  0  0  0  0 34  0  0
    2.4245    2.7988    0.8365 C   0  0  0  0  0  0  0  0  0  9  0  0
    3.0087    3.0541    1.7223 H   0  0  0  0  0  0  0  0  0 31  0  0
    2.2338    3.7134    0.2683 H   0  0  0  0  0  0  0  0  0 32  0  0
    1.1406    2.3037    1.2621 N   0  0  0  0  0  0  0  0  0 10  0  0
    0.0285    2.2074   -0.0062 S   0  0  2  0  0  6  0  0  0 11  0  0
    0.4166    1.2965   -1.0406 O   0  0  0  0  0  0  0  0  0 12  0  0
   -0.2197    3.5525   -0.4150 O   0  0  0  0  0  0  0  0  0 13  0  0
   -1.4294    1.5840    0.8414 C   0  0  0  0  0  0  0  0  0 14  0  0
   -1.9777    2.3599    1.8357 C   0  0  0  0  0  0  0  0  0 15  0  0
   -1.5183    3.3056    2.0885 H   0  0  0  0  0  0  0  0  0 24  0  0
   -3.0922    1.9021    2.5153 C   0  0  0  0  0  0  0  0  0 16  0  0
   -3.5407    2.4906    3.2980 H   0  0  0  0  0  0  0  0  0 23  0  0
   -3.6570    0.6860    2.1612 C   0  0  0  0  0  0  0  0  0 17  0  0
   -4.5432    0.3276    2.6756 H   0  0  0  0  0  0  0  0  0 22  0  0
   -3.1112   -0.0720    1.1299 C   0  0  0  0  0  0  0  0  0 18  0  0
   -3.5650   -1.0161    0.8602 H   0  0  0  0  0  0  0  0  0 21  0  0
   -1.9887    0.3833    0.4622 C   0  0  0  0  0  0  0  0  0 19  0  0
   -1.5381   -0.1856   -0.3343 H   0  0  0  0  0  0  0  0  0 20  0  0
    1.2912    1.1114    2.0629 C   0  0  0  0  0  0  0  0  0 25  0  0
    0.2974    0.8000    2.4160 H   0  0  0  0  0  0  0  0  0 29  0  0
    1.8863    1.3609    2.9395 H   0  0  0  0  0  0  0  0  0 30  0  0
    1.9318   -0.0326    1.2831 C   0  0  0  0  0  0  0  0  0 26  0  0
    1.2177   -0.3751    0.5425 H   0  0  0  0  0  0  0  0  0 27  0  0
    2.1300   -0.8721    1.9518 H   0  0  0  0  0  0  0  0  0 28  0  0
    0.4455   -1.4875   -2.0884 N   0  0  0  0  0  0  0  0  0 36  0  0
   -0.8148   -2.0436   -1.9729 C   0  0  0  0  0  0  0  0  0 37  0  0
   -1.1065   -3.0995   -1.1064 C   0  0  0  0  0  0  0  0  0 38  0  0
   -0.3223   -3.5077   -0.4979 H   0  0  0  0  0  0  0  0  0 47  0  0
   -2.3888   -3.6134   -1.0298 C   0  0  0  0  0  0  0  0  0 39  0  0
   -2.6259   -4.4076   -0.3494 H   0  0  0  0  0  0  0  0  0 46  0  0
   -3.3847   -3.0508   -1.8090 C   0  0  0  0  0  0  0  0  0 40  0  0
   -4.6359   -3.5513   -1.7425 F   0  0  0  0  0  0  0  0  0 45  0  0
   -3.1203   -2.0196   -2.6920 C   0  0  0  0  0  0  0  0  0 41  0  0
   -3.9203   -1.6179   -3.2952 H   0  0  0  0  0  0  0  0  0 44  0  0
   -1.8388   -1.5112   -2.7631 C   0  0  0  0  0  0  0  0  0 42  0  0
   -1.6213   -0.7005   -3.4380 H   0  0  0  0  0  0  0  0  0 43  0  0
    0.4271   -0.5928   -2.5692 H   0  0  0  0  0  0  0  0  0 48  0  0
  1  2  2  0
  2  3  1  0
  3  4  1  0
  3  5  1  0
  5  6  1  0
  5  7  1  0
  5  8  1  0
  8  9  1  1
  8 10  1  0
 10 11  1  0
 10 12  1  0
 10 13  1  0
 13 14  1  0
 13 15  1  0
 13 16  1  0
 16 17  1  0
 17 18  2  0
 17 19  2  0
 17 20  1  6
 20 21  4  0
 21 22  1  0
 21 23  4  0
 23 24  1  0
 23 25  4  0
 25 26  1  0
 25 27  4  0
 27 28  1  0
 27 29  4  0
 29 30  1  0
 16 31  1  0
 31 32  1  0
 31 33  1  0
 31 34  1  0
 34 35  1  0
 34 36  1  0
  2 37  1  0
 37 38  1  0
 38 39  4  0
 39 40  1  0
 39 41  4  0
 41 42  1  0
 41 43  4  0
 43 44  1  0
 43 45  4  0
 45 46  1  0
 45 47  4  0
 47 48  1  0
 37 49  1  0
 34  8  1  0
 47 38  4  0
 29 20  4  0
M  END
>  <sample_id>  (54)
train::O=C(NCC1CCN(S(=O)(=O)c2ccccc2)CC1)Nc1ccc(F)cc1__gen0002

>  <partition>  (54)
BAT_EXTERNAL_CONFIRM

>  <method>  (54)
BA_seed193

>  <candidate>  (54)
primary

$$$$
train::CC(C)c1ccc(N(CC(=O)NC2CCCCC2)C(=O)CCC(=O)Nc2ccccn2)cc1__gen0000
     RDKit          3D

 67 69  0  0  0  0  0  0  0  0999 V2000
    3.7026    0.2110   -5.2502 C   0  0  0  0  0  0  0  0  0  0  0  0
    3.8370    0.3007   -6.3225 H   0  0  0  0  0  0  0  0  0  1  0  0
    3.2393    1.1167   -4.8820 H   0  0  0  0  0  0  0  0  0  2  0  0
    4.6742    0.1012   -4.7762 H   0  0  0  0  0  0  0  0  0  3  0  0
    2.8214   -0.9973   -4.9371 C   0  0  2  0  0  0  0  0  0  4  0  0
    2.4812   -1.0536   -3.4675 C   0  0  0  0  0  0  0  0  0  5  0  0
    3.4724   -1.1526   -2.5114 C   0  0  0  0  0  0  0  0  0  6  0  0
    4.5091   -1.2485   -2.7963 H   0  0  0  0  0  0  0  0  0 61  0  0
    3.1679   -1.1801   -1.1633 C   0  0  0  0  0  0  0  0  0  7  0  0
    3.9566   -1.2747   -0.4322 H   0  0  0  0  0  0  0  0  0 60  0  0
    1.8429   -1.0553   -0.7430 C   0  0  0  0  0  0  0  0  0  8  0  0
    1.4949   -1.0700    0.6213 N   0  0  0  0  0  0  0  0  0 13  0  0
    1.9264   -0.2212    1.5669 C   0  0  0  0  0  0  0  0  0 14  0  0
    1.5286   -0.2932    2.7178 O   0  0  0  0  0  0  0  0  0 15  0  0
    2.8428    0.9104    1.1700 C   0  0  0  0  0  0  0  0  0 16  0  0
    2.0291    2.2105    1.1398 C   0  0  0  0  0  0  0  0  0 17  0  0
    1.0554    2.1642   -0.0322 C   0  0  0  0  0  0  0  0  0 18  0  0
    1.4219    2.1233   -1.1732 O   0  0  0  0  0  0  0  0  0 19  0  0
   -0.2716    2.1830    0.3417 N   0  0  0  0  0  0  0  0  0 20  0  0
   -1.3893    2.1436   -0.4523 C   0  0  0  0  0  0  0  0  0 21  0  0
   -2.5260    2.2679    0.2487 N   0  0  0  0  0  0  0  0  0 22  0  0
   -3.6714    2.2494   -0.3983 C   0  0  0  0  0  0  0  0  0 23  0  0
   -4.5493    2.3702    0.2345 H   0  0  0  0  0  0  0  0  0 30  0  0
   -3.7625    2.0961   -1.7727 C   0  0  0  0  0  0  0  0  0 24  0  0
   -4.7249    2.1069   -2.2618 H   0  0  0  0  0  0  0  0  0 29  0  0
   -2.5788    1.9755   -2.4963 C   0  0  0  0  0  0  0  0  0 25  0  0
   -2.6158    1.8700   -3.5679 H   0  0  0  0  0  0  0  0  0 28  0  0
   -1.3799    1.9794   -1.8369 C   0  0  0  0  0  0  0  0  0 26  0  0
   -0.4405    1.8908   -2.3553 H   0  0  0  0  0  0  0  0  0 27  0  0
   -0.4840    2.1926    1.3380 H   0  0  0  0  0  0  0  0  0 31  0  0
    2.7033    3.0502    0.9819 H   0  0  0  0  0  0  0  0  0 32  0  0
    1.5042    2.3367    2.0946 H   0  0  0  0  0  0  0  0  0 33  0  0
    3.2992    0.7537    0.1937 H   0  0  0  0  0  0  0  0  0 34  0  0
    3.6224    1.0159    1.9248 H   0  0  0  0  0  0  0  0  0 35  0  0
    0.5295   -2.1077    1.0064 C   0  0  0  0  0  0  0  0  0 36  0  0
   -0.9155   -1.5875    1.0259 C   0  0  0  0  0  0  0  0  0 37  0  0
   -1.6813   -1.7546    0.1000 O   0  0  0  0  0  0  0  0  0 38  0  0
   -1.2289   -0.9330    2.1501 N   0  0  0  0  0  0  0  0  0 39  0  0
   -0.5119   -0.8083    2.8469 H   0  0  0  0  0  0  0  0  0 40  0  0
   -2.5330   -0.3470    2.3671 C   0  0  1  0  0  0  0  0  0 41  0  0
   -2.9406   -0.1109    1.3683 H   0  0  0  0  0  0  0  0  0 57  0  0
   -3.4843   -1.3420    3.0441 C   0  0  0  0  0  0  0  0  0 42  0  0
   -3.4616   -2.3037    2.5382 H   0  0  0  0  0  0  0  0  0 55  0  0
   -4.5011   -0.9452    2.9824 H   0  0  0  0  0  0  0  0  0 56  0  0
   -3.1500   -1.5587    4.5194 C   0  0  0  0  0  0  0  0  0 43  0  0
   -2.2042   -2.0743    4.6211 H   0  0  0  0  0  0  0  0  0 53  0  0
   -3.9187   -2.2032    4.9906 H   0  0  0  0  0  0  0  0  0 54  0  0
   -3.1012   -0.2388    5.2844 C   0  0  0  0  0  0  0  0  0 44  0  0
   -2.8789   -0.4268    6.3188 H   0  0  0  0  0  0  0  0  0 51  0  0
   -4.0534    0.2901    5.2238 H   0  0  0  0  0  0  0  0  0 52  0  0
   -2.0701    0.6813    4.6363 C   0  0  0  0  0  0  0  0  0 45  0  0
   -2.0298    1.6338    5.1801 H   0  0  0  0  0  0  0  0  0 49  0  0
   -1.0866    0.2107    4.7354 H   0  0  0  0  0  0  0  0  0 50  0  0
   -2.4149    0.9468    3.1804 C   0  0  0  0  0  0  0  0  0 46  0  0
   -3.3621    1.4814    3.1096 H   0  0  0  0  0  0  0  0  0 47  0  0
   -1.6393    1.5803    2.7470 H   0  0  0  0  0  0  0  0  0 48  0  0
    0.8000   -2.4734    1.9977 H   0  0  0  0  0  0  0  0  0 58  0  0
    0.6069   -2.9214    0.2835 H   0  0  0  0  0  0  0  0  0 59  0  0
    0.8423   -0.9613   -1.7002 C   0  0  0  0  0  0  0  0  0  9  0  0
   -0.2000   -0.9068   -1.3869 H   0  0  0  0  0  0  0  0  0 12  0  0
    1.1642   -0.9419   -3.0487 C   0  0  0  0  0  0  0  0  0 10  0  0
    0.3603   -0.8815   -3.7705 H   0  0  0  0  0  0  0  0  0 11  0  0
    3.4933   -2.2981   -5.3701 C   0  0  0  0  0  0  0  0  0 62  0  0
    4.4433   -2.4352   -4.8576 H   0  0  0  0  0  0  0  0  0 63  0  0
    3.6585   -2.2924   -6.4432 H   0  0  0  0  0  0  0  0  0 64  0  0
    2.8470   -3.1555   -5.1459 H   0  0  0  0  0  0  0  0  0 65  0  0
    1.8831   -0.8883   -5.4797 H   0  0  0  0  0  0  0  0  0 66  0  0
  1  2  1  0
  1  3  1  0
  1  4  1  0
  1  5  1  0
  5  6  1  0
  6  7  4  0
  7  8  1  0
  7  9  4  0
  9 10  1  0
  9 11  4  0
 11 12  1  0
 12 13  1  0
 13 14  2  0
 13 15  1  0
 15 16  1  0
 16 17  1  0
 17 18  2  0
 17 19  1  0
 19 20  1  0
 20 21  4  0
 21 22  4  0
 22 23  1  0
 22 24  4  0
 24 25  1  0
 24 26  4  0
 26 27  1  0
 26 28  4  0
 28 29  1  0
 19 30  1  0
 16 31  1  0
 16 32  1  0
 15 33  1  0
 15 34  1  0
 12 35  1  0
 35 36  1  0
 36 37  2  0
 36 38  1  0
 38 39  1  0
 38 40  1  0
 40 41  1  6
 40 42  1  0
 42 43  1  0
 42 44  1  0
 42 45  1  0
 45 46  1  0
 45 47  1  0
 45 48  1  0
 48 49  1  0
 48 50  1  0
 48 51  1  0
 51 52  1  0
 51 53  1  0
 51 54  1  0
 54 55  1  0
 54 56  1  0
 35 57  1  0
 35 58  1  0
 11 59  4  0
 59 60  1  0
 59 61  4  0
 61 62  1  0
  5 63  1  0
 63 64  1  0
 63 65  1  0
 63 66  1  0
  5 67  1  6
 61  6  4  0
 28 20  4  0
 54 40  1  0
M  END
>  <sample_id>  (55)
train::CC(C)c1ccc(N(CC(=O)NC2CCCCC2)C(=O)CCC(=O)Nc2ccccn2)cc1__gen0000

>  <partition>  (55)
BAT_EXTERNAL_CONFIRM

>  <method>  (55)
BA_seed193

>  <candidate>  (55)
primary

$$$$
train::CC(C)c1ccc(N(CC(=O)NC2CCCCC2)C(=O)CCC(=O)Nc2ccccn2)cc1__gen0001
     RDKit          3D

 67 69  0  0  0  0  0  0  0  0999 V2000
    1.1609    5.2945    1.6792 C   0  0  0  0  0  0  0  0  0  0  0  0
    2.2174    5.1309    1.5613 H   0  0  0  0  0  0  0  0  0  1  0  0
    1.0114    6.2589    2.1548 H   0  0  0  0  0  0  0  0  0  2  0  0
    0.7485    4.5125    2.3155 H   0  0  0  0  0  0  0  0  0  3  0  0
    0.4531    5.2611    0.3156 C   0  0  2  0  0  0  0  0  0  4  0  0
    0.5622    3.8769   -0.2623 C   0  0  0  0  0  0  0  0  0  5  0  0
   -0.5399    3.0179   -0.2443 C   0  0  0  0  0  0  0  0  0  6  0  0
   -1.4926    3.3926    0.0973 H   0  0  0  0  0  0  0  0  0 61  0  0
   -0.4436    1.7172   -0.6942 C   0  0  0  0  0  0  0  0  0  7  0  0
   -1.3088    1.0666   -0.6635 H   0  0  0  0  0  0  0  0  0 60  0  0
    0.7733    1.2260   -1.1466 C   0  0  0  0  0  0  0  0  0  8  0  0
    0.8755   -0.1338   -1.5778 N   0  0  0  0  0  0  0  0  0 13  0  0
    1.8374   -0.9763   -1.1990 C   0  0  0  0  0  0  0  0  0 14  0  0
    2.0817   -1.9987   -1.8096 O   0  0  0  0  0  0  0  0  0 15  0  0
    2.5632   -0.6683    0.1046 C   0  0  0  0  0  0  0  0  0 16  0  0
    1.8358   -1.3927    1.2388 C   0  0  0  0  0  0  0  0  0 17  0  0
    0.4179   -0.8822    1.4263 C   0  0  0  0  0  0  0  0  0 18  0  0
   -0.5666   -1.4523    1.0068 O   0  0  0  0  0  0  0  0  0 19  0  0
    0.3818    0.3226    2.1017 N   0  0  0  0  0  0  0  0  0 20  0  0
   -0.7185    1.0803    2.4333 C   0  0  0  0  0  0  0  0  0 21  0  0
   -0.3966    2.2216    3.0373 N   0  0  0  0  0  0  0  0  0 22  0  0
   -1.3525    3.0427    3.4094 C   0  0  0  0  0  0  0  0  0 23  0  0
   -1.0299    3.9431    3.9048 H   0  0  0  0  0  0  0  0  0 30  0  0
   -2.7056    2.7721    3.2290 C   0  0  0  0  0  0  0  0  0 24  0  0
   -3.4505    3.4653    3.5594 H   0  0  0  0  0  0  0  0  0 29  0  0
   -3.0475    1.5750    2.6179 C   0  0  0  0  0  0  0  0  0 25  0  0
   -4.0771    1.3148    2.4430 H   0  0  0  0  0  0  0  0  0 28  0  0
   -2.0516    0.7147    2.2031 C   0  0  0  0  0  0  0  0  0 26  0  0
   -2.2764   -0.2275    1.7403 H   0  0  0  0  0  0  0  0  0 27  0  0
    1.2529    0.7600    2.3641 H   0  0  0  0  0  0  0  0  0 31  0  0
    2.3891   -1.2990    2.1708 H   0  0  0  0  0  0  0  0  0 32  0  0
    1.7561   -2.4540    0.9898 H   0  0  0  0  0  0  0  0  0 33  0  0
    3.5689   -1.0927    0.0172 H   0  0  0  0  0  0  0  0  0 34  0  0
    2.6271    0.3940    0.3024 H   0  0  0  0  0  0  0  0  0 35  0  0
    0.0056   -0.4519   -2.7087 C   0  0  0  0  0  0  0  0  0 36  0  0
   -0.0978   -1.9442   -3.0886 C   0  0  0  0  0  0  0  0  0 37  0  0
    0.0075   -2.2544   -4.2524 O   0  0  0  0  0  0  0  0  0 38  0  0
   -0.4009   -2.7673   -2.0948 N   0  0  0  0  0  0  0  0  0 39  0  0
   -0.4644   -2.4004   -1.1582 H   0  0  0  0  0  0  0  0  0 40  0  0
   -0.5239   -4.1914   -2.2587 C   0  0  1  0  0  0  0  0  0 41  0  0
   -0.3629   -4.3568   -3.3212 H   0  0  0  0  0  0  0  0  0 57  0  0
    0.5403   -4.9131   -1.4310 C   0  0  0  0  0  0  0  0  0 42  0  0
    1.5221   -4.4577   -1.6245 H   0  0  0  0  0  0  0  0  0 55  0  0
    0.5654   -5.9474   -1.7422 H   0  0  0  0  0  0  0  0  0 56  0  0
    0.2654   -4.8556    0.0692 C   0  0  0  0  0  0  0  0  0 43  0  0
    0.9848   -5.4714    0.6250 H   0  0  0  0  0  0  0  0  0 53  0  0
    0.3584   -3.8325    0.4089 H   0  0  0  0  0  0  0  0  0 54  0  0
   -1.1455   -5.3802    0.3847 C   0  0  0  0  0  0  0  0  0 44  0  0
   -1.2160   -6.4198    0.0999 H   0  0  0  0  0  0  0  0  0 51  0  0
   -1.3575   -5.3118    1.4623 H   0  0  0  0  0  0  0  0  0 52  0  0
   -2.1778   -4.5654   -0.3760 C   0  0  0  0  0  0  0  0  0 45  0  0
   -3.1894   -4.9246   -0.1590 H   0  0  0  0  0  0  0  0  0 49  0  0
   -2.0964   -3.5282   -0.0619 H   0  0  0  0  0  0  0  0  0 50  0  0
   -1.9309   -4.6738   -1.8770 C   0  0  0  0  0  0  0  0  0 46  0  0
   -2.6756   -4.0813   -2.4185 H   0  0  0  0  0  0  0  0  0 47  0  0
   -2.0382   -5.7090   -2.1790 H   0  0  0  0  0  0  0  0  0 48  0  0
   -1.0075   -0.1303   -2.4604 H   0  0  0  0  0  0  0  0  0 58  0  0
    0.3544    0.0761   -3.5861 H   0  0  0  0  0  0  0  0  0 59  0  0
    1.8766    2.0716   -1.1903 C   0  0  0  0  0  0  0  0  0  9  0  0
    2.8086    1.7038   -1.5925 H   0  0  0  0  0  0  0  0  0 12  0  0
    1.7689    3.3790   -0.7512 C   0  0  0  0  0  0  0  0  0 10  0  0
    2.6369    4.0184   -0.7837 H   0  0  0  0  0  0  0  0  0 11  0  0
    1.0277    6.3106   -0.6290 C   0  0  0  0  0  0  0  0  0 62  0  0
    2.1072    6.2067   -0.7432 H   0  0  0  0  0  0  0  0  0 63  0  0
    0.8277    7.3106   -0.2376 H   0  0  0  0  0  0  0  0  0 64  0  0
    0.5680    6.2297   -1.6165 H   0  0  0  0  0  0  0  0  0 65  0  0
   -0.5974    5.4778    0.4658 H   0  0  0  0  0  0  0  0  0 66  0  0
  1  2  1  0
  1  3  1  0
  1  4  1  0
  1  5  1  0
  5  6  1  0
  6  7  4  0
  7  8  1  0
  7  9  4  0
  9 10  1  0
  9 11  4  0
 11 12  1  0
 12 13  1  0
 13 14  2  0
 13 15  1  0
 15 16  1  0
 16 17  1  0
 17 18  2  0
 17 19  1  0
 19 20  1  0
 20 21  4  0
 21 22  4  0
 22 23  1  0
 22 24  4  0
 24 25  1  0
 24 26  4  0
 26 27  1  0
 26 28  4  0
 28 29  1  0
 19 30  1  0
 16 31  1  0
 16 32  1  0
 15 33  1  0
 15 34  1  0
 12 35  1  0
 35 36  1  0
 36 37  2  0
 36 38  1  0
 38 39  1  0
 38 40  1  0
 40 41  1  6
 40 42  1  0
 42 43  1  0
 42 44  1  0
 42 45  1  0
 45 46  1  0
 45 47  1  0
 45 48  1  0
 48 49  1  0
 48 50  1  0
 48 51  1  0
 51 52  1  0
 51 53  1  0
 51 54  1  0
 54 55  1  0
 54 56  1  0
 35 57  1  0
 35 58  1  0
 11 59  4  0
 59 60  1  0
 59 61  4  0
 61 62  1  0
  5 63  1  0
 63 64  1  0
 63 65  1  0
 63 66  1  0
  5 67  1  1
 61  6  4  0
 28 20  4  0
 54 40  1  0
M  END
>  <sample_id>  (56)
train::CC(C)c1ccc(N(CC(=O)NC2CCCCC2)C(=O)CCC(=O)Nc2ccccn2)cc1__gen0001

>  <partition>  (56)
BAT_EXTERNAL_CONFIRM

>  <method>  (56)
BA_seed193

>  <candidate>  (56)
primary

$$$$
train::CC(C)c1ccc(N(CC(=O)NC2CCCCC2)C(=O)CCC(=O)Nc2ccccn2)cc1__gen0002
     RDKit          3D

 67 69  0  0  0  0  0  0  0  0999 V2000
   -7.3689    1.0441   -0.1477 C   0  0  0  0  0  0  0  0  0  0  0  0
   -7.2790    0.2635   -0.8937 H   0  0  0  0  0  0  0  0  0  1  0  0
   -7.5864    0.5836    0.8088 H   0  0  0  0  0  0  0  0  0  2  0  0
   -8.2049    1.6742   -0.4245 H   0  0  0  0  0  0  0  0  0  3  0  0
   -6.0770    1.8688   -0.0780 C   0  0  2  0  0  0  0  0  0  4  0  0
   -4.8773    0.9796    0.1693 C   0  0  0  0  0  0  0  0  0  5  0  0
   -3.8393    0.9133   -0.7295 C   0  0  0  0  0  0  0  0  0  6  0  0
   -3.8814    1.5019   -1.6389 H   0  0  0  0  0  0  0  0  0 61  0  0
   -2.7355    0.1097   -0.5005 C   0  0  0  0  0  0  0  0  0  7  0  0
   -1.9208    0.0788   -1.2083 H   0  0  0  0  0  0  0  0  0 60  0  0
   -2.6648   -0.6394    0.6555 C   0  0  0  0  0  0  0  0  0  8  0  0
   -1.5741   -1.4806    0.8994 N   0  0  0  0  0  0  0  0  0 13  0  0
   -0.6938   -1.3644    1.9238 C   0  0  0  0  0  0  0  0  0 14  0  0
    0.2452   -2.1243    2.0724 O   0  0  0  0  0  0  0  0  0 15  0  0
   -0.9143   -0.2090    2.8934 C   0  0  0  0  0  0  0  0  0 16  0  0
    0.4566    0.4447    3.1185 C   0  0  0  0  0  0  0  0  0 17  0  0
    0.9748    0.9842    1.8075 C   0  0  0  0  0  0  0  0  0 18  0  0
    0.2726    1.2511    0.8603 O   0  0  0  0  0  0  0  0  0 19  0  0
    2.3237    1.1919    1.8103 N   0  0  0  0  0  0  0  0  0 20  0  0
    3.1228    1.6945    0.7815 C   0  0  0  0  0  0  0  0  0 21  0  0
    4.4183    1.6821    1.1074 N   0  0  0  0  0  0  0  0  0 22  0  0
    5.2892    2.1478    0.2327 C   0  0  0  0  0  0  0  0  0 23  0  0
    6.3321    2.1291    0.5544 H   0  0  0  0  0  0  0  0  0 30  0  0
    4.9293    2.6238   -1.0126 C   0  0  0  0  0  0  0  0  0 24  0  0
    5.6808    2.9740   -1.7034 H   0  0  0  0  0  0  0  0  0 29  0  0
    3.5954    2.6085   -1.3557 C   0  0  0  0  0  0  0  0  0 25  0  0
    3.2736    2.9579   -2.3231 H   0  0  0  0  0  0  0  0  0 28  0  0
    2.6688    2.1312   -0.4516 C   0  0  0  0  0  0  0  0  0 26  0  0
    1.6147    2.1078   -0.6622 H   0  0  0  0  0  0  0  0  0 27  0  0
    2.8630    0.9177    2.6240 H   0  0  0  0  0  0  0  0  0 31  0  0
    1.1376   -0.3057    3.5260 H   0  0  0  0  0  0  0  0  0 32  0  0
    0.3662    1.2692    3.8274 H   0  0  0  0  0  0  0  0  0 33  0  0
   -1.6066    0.5202    2.4699 H   0  0  0  0  0  0  0  0  0 34  0  0
   -1.3313   -0.5798    3.8256 H   0  0  0  0  0  0  0  0  0 35  0  0
   -1.2694   -2.4691   -0.1395 C   0  0  0  0  0  0  0  0  0 36  0  0
   -0.1384   -1.9350   -1.0697 C   0  0  0  0  0  0  0  0  0 37  0  0
   -0.3969   -1.4430   -2.1452 O   0  0  0  0  0  0  0  0  0 38  0  0
    1.0882   -2.0970   -0.5513 N   0  0  0  0  0  0  0  0  0 39  0  0
    1.1577   -2.4889    0.3655 H   0  0  0  0  0  0  0  0  0 40  0  0
    2.2956   -1.5689   -1.1763 C   0  0  1  0  0  0  0  0  0 41  0  0
    2.1118   -0.4961   -1.3434 H   0  0  0  0  0  0  0  0  0 57  0  0
    3.4882   -1.8132   -0.2483 C   0  0  0  0  0  0  0  0  0 42  0  0
    3.5679   -2.8864   -0.0585 H   0  0  0  0  0  0  0  0  0 55  0  0
    3.2940   -1.3402    0.7291 H   0  0  0  0  0  0  0  0  0 56  0  0
    4.7541   -1.2728   -0.8685 C   0  0  0  0  0  0  0  0  0 43  0  0
    4.6851   -0.1997   -0.9927 H   0  0  0  0  0  0  0  0  0 53  0  0
    5.6026   -1.4919   -0.2089 H   0  0  0  0  0  0  0  0  0 54  0  0
    4.9976   -1.9052   -2.2516 C   0  0  0  0  0  0  0  0  0 44  0  0
    5.9138   -1.4914   -2.6745 H   0  0  0  0  0  0  0  0  0 51  0  0
    5.1366   -2.9807   -2.1591 H   0  0  0  0  0  0  0  0  0 52  0  0
    3.7975   -1.6247   -3.1486 C   0  0  0  0  0  0  0  0  0 45  0  0
    3.6745   -0.5576   -3.2922 H   0  0  0  0  0  0  0  0  0 49  0  0
    3.9752   -2.0737   -4.1314 H   0  0  0  0  0  0  0  0  0 50  0  0
    2.5374   -2.2047   -2.5392 C   0  0  0  0  0  0  0  0  0 46  0  0
    1.6809   -2.0053   -3.1841 H   0  0  0  0  0  0  0  0  0 47  0  0
    2.6307   -3.2866   -2.4137 H   0  0  0  0  0  0  0  0  0 48  0  0
   -0.9273   -3.3758    0.3419 H   0  0  0  0  0  0  0  0  0 58  0  0
   -2.1569   -2.6398   -0.7251 H   0  0  0  0  0  0  0  0  0 59  0  0
   -3.7143   -0.5786    1.5821 C   0  0  0  0  0  0  0  0  0  9  0  0
   -3.6520   -1.1782    2.4737 H   0  0  0  0  0  0  0  0  0 12  0  0
   -4.8115    0.2087    1.3378 C   0  0  0  0  0  0  0  0  0 10  0  0
   -5.6052    0.2433    2.0469 H   0  0  0  0  0  0  0  0  0 11  0  0
   -6.1723    2.9568    0.9633 C   0  0  0  0  0  0  0  0  0 62  0  0
   -6.3557    2.5364    1.9566 H   0  0  0  0  0  0  0  0  0 63  0  0
   -5.2554    3.5366    1.0172 H   0  0  0  0  0  0  0  0  0 64  0  0
   -6.9997    3.6377    0.7388 H   0  0  0  0  0  0  0  0  0 65  0  0
   -5.9435    2.3351   -1.0693 H   0  0  0  0  0  0  0  0  0 66  0  0
  1  2  1  0
  1  3  1  0
  1  4  1  0
  1  5  1  0
  5  6  1  0
  6  7  4  0
  7  8  1  0
  7  9  4  0
  9 10  1  0
  9 11  4  0
 11 12  1  0
 12 13  1  0
 13 14  2  0
 13 15  1  0
 15 16  1  0
 16 17  1  0
 17 18  2  0
 17 19  1  0
 19 20  1  0
 20 21  4  0
 21 22  4  0
 22 23  1  0
 22 24  4  0
 24 25  1  0
 24 26  4  0
 26 27  1  0
 26 28  4  0
 28 29  1  0
 19 30  1  0
 16 31  1  0
 16 32  1  0
 15 33  1  0
 15 34  1  0
 12 35  1  0
 35 36  1  0
 36 37  2  0
 36 38  1  0
 38 39  1  0
 38 40  1  0
 40 41  1  6
 40 42  1  0
 42 43  1  0
 42 44  1  0
 42 45  1  0
 45 46  1  0
 45 47  1  0
 45 48  1  0
 48 49  1  0
 48 50  1  0
 48 51  1  0
 51 52  1  0
 51 53  1  0
 51 54  1  0
 54 55  1  0
 54 56  1  0
 35 57  1  0
 35 58  1  0
 11 59  4  0
 59 60  1  0
 59 61  4  0
 61 62  1  0
  5 63  1  0
 63 64  1  0
 63 65  1  0
 63 66  1  0
  5 67  1  6
 61  6  4  0
 28 20  4  0
 54 40  1  0
M  END
>  <sample_id>  (57)
train::CC(C)c1ccc(N(CC(=O)NC2CCCCC2)C(=O)CCC(=O)Nc2ccccn2)cc1__gen0002

>  <partition>  (57)
BAT_EXTERNAL_CONFIRM

>  <method>  (57)
BA_seed193

>  <candidate>  (57)
primary

$$$$
train::CCC(=O)NCc1nc2ccccc2n1Cc1ccccc1F__gen0000
     RDKit          3D

 41 43  0  0  0  0  0  0  0  0999 V2000
   -2.8535    4.7497    1.2276 C   0  0  0  0  0  0  0  0  0  0  0  0
   -2.7992    3.6201    0.1864 C   0  0  0  0  0  0  0  0  0  1  0  0
   -1.4412    2.9636    0.1967 C   0  0  0  0  0  0  0  0  0  2  0  0
   -0.6369    3.0608   -0.6972 O   0  0  0  0  0  0  0  0  0  3  0  0
   -1.1889    2.2385    1.3163 N   0  0  0  0  0  0  0  0  0  4  0  0
   -1.9159    2.0868    1.9949 H   0  0  0  0  0  0  0  0  0  5  0  0
    0.0550    1.5149    1.5127 C   0  0  0  0  0  0  0  0  0  6  0  0
   -0.1675    0.0280    1.3545 C   0  0  0  0  0  0  0  0  0  7  0  0
   -0.4158   -0.7587    2.3589 N   0  0  0  0  0  0  0  0  0  8  0  0
   -0.5860   -1.9842    1.8137 C   0  0  0  0  0  0  0  0  0  9  0  0
   -0.8655   -3.2189    2.4201 C   0  0  0  0  0  0  0  0  0 10  0  0
   -0.9934   -3.2894    3.4916 H   0  0  0  0  0  0  0  0  0 33  0  0
   -0.9780   -4.3234    1.6057 C   0  0  0  0  0  0  0  0  0 11  0  0
   -1.1971   -5.2898    2.0440 H   0  0  0  0  0  0  0  0  0 32  0  0
   -0.8146   -4.2399    0.2193 C   0  0  0  0  0  0  0  0  0 12  0  0
   -0.9018   -5.1440   -0.3739 H   0  0  0  0  0  0  0  0  0 31  0  0
   -0.5299   -3.0372   -0.3929 C   0  0  0  0  0  0  0  0  0 13  0  0
   -0.3904   -2.9733   -1.4631 H   0  0  0  0  0  0  0  0  0 30  0  0
   -0.4127   -1.9257    0.4135 C   0  0  0  0  0  0  0  0  0 14  0  0
   -0.1647   -0.5980    0.1405 N   0  0  0  0  0  0  0  0  0 15  0  0
    0.1484   -0.0669   -1.1608 C   0  0  0  0  0  0  0  0  0 16  0  0
    1.5524   -0.4549   -1.5711 C   0  0  0  0  0  0  0  0  0 17  0  0
    2.6173   -0.3505   -0.6856 C   0  0  0  0  0  0  0  0  0 18  0  0
    2.4338    0.0027    0.3167 H   0  0  0  0  0  0  0  0  0 27  0  0
    3.9044   -0.7078   -1.0660 C   0  0  0  0  0  0  0  0  0 19  0  0
    4.7170   -0.6341   -0.3525 H   0  0  0  0  0  0  0  0  0 26  0  0
    4.1489   -1.1613   -2.3577 C   0  0  0  0  0  0  0  0  0 20  0  0
    5.1477   -1.4395   -2.6500 H   0  0  0  0  0  0  0  0  0 25  0  0
    3.1086   -1.2561   -3.2628 C   0  0  0  0  0  0  0  0  0 21  0  0
    3.2600   -1.6178   -4.2587 H   0  0  0  0  0  0  0  0  0 24  0  0
    1.8331   -0.9109   -2.8551 C   0  0  0  0  0  0  0  0  0 22  0  0
    0.8133   -1.0219   -3.7324 F   0  0  0  0  0  0  0  0  0 23  0  0
    0.0274    1.0178   -1.1399 H   0  0  0  0  0  0  0  0  0 28  0  0
   -0.5601   -0.4647   -1.8956 H   0  0  0  0  0  0  0  0  0 29  0  0
    0.7661    1.8815    0.7716 H   0  0  0  0  0  0  0  0  0 34  0  0
    0.4310    1.6987    2.5167 H   0  0  0  0  0  0  0  0  0 35  0  0
   -2.9511    4.0418   -0.8071 H   0  0  0  0  0  0  0  0  0 36  0  0
   -3.5727    2.8760    0.3749 H   0  0  0  0  0  0  0  0  0 37  0  0
   -2.0823    5.4829    1.0407 H   0  0  0  0  0  0  0  0  0 38  0  0
   -3.8200    5.2505    1.1711 H   0  0  0  0  0  0  0  0  0 39  0  0
   -2.7250    4.3547    2.2346 H   0  0  0  0  0  0  0  0  0 40  0  0
  1  2  1  0
  2  3  1  0
  3  4  2  0
  3  5  1  0
  5  6  1  0
  5  7  1  0
  7  8  1  0
  8  9  4  0
  9 10  4  0
 10 11  4  0
 11 12  1  0
 11 13  4  0
 13 14  1  0
 13 15  4  0
 15 16  1  0
 15 17  4  0
 17 18  1  0
 17 19  4  0
 19 20  4  0
 20 21  1  0
 21 22  1  0
 22 23  4  0
 23 24  1  0
 23 25  4  0
 25 26  1  0
 25 27  4  0
 27 28  1  0
 27 29  4  0
 29 30  1  0
 29 31  4  0
 31 32  1  0
 21 33  1  0
 21 34  1  0
  7 35  1  0
  7 36  1  0
  2 37  1  0
  2 38  1  0
  1 39  1  0
  1 40  1  0
  1 41  1  0
 20  8  4  0
 31 22  4  0
 19 10  4  0
M  END
>  <sample_id>  (58)
train::CCC(=O)NCc1nc2ccccc2n1Cc1ccccc1F__gen0000

>  <partition>  (58)
BAT_EXTERNAL_CONFIRM

>  <method>  (58)
BA_seed193

>  <candidate>  (58)
primary

$$$$
train::CCC(=O)NCc1nc2ccccc2n1Cc1ccccc1F__gen0001
     RDKit          3D

 41 43  0  0  0  0  0  0  0  0999 V2000
    0.7499   -1.0568   -4.2380 C   0  0  0  0  0  0  0  0  0  0  0  0
    1.0512   -0.1686   -3.0387 C   0  0  0  0  0  0  0  0  0  1  0  0
    0.1773   -0.5775   -1.8521 C   0  0  0  0  0  0  0  0  0  2  0  0
   -0.8469    0.0147   -1.5702 O   0  0  0  0  0  0  0  0  0  3  0  0
    0.6231   -1.6624   -1.1993 N   0  0  0  0  0  0  0  0  0  4  0  0
    1.5005   -2.0803   -1.4954 H   0  0  0  0  0  0  0  0  0  5  0  0
   -0.1828   -2.4029   -0.2232 C   0  0  0  0  0  0  0  0  0  6  0  0
   -1.0209   -1.5213    0.6370 C   0  0  0  0  0  0  0  0  0  7  0  0
   -2.3046   -1.6479    0.6986 N   0  0  0  0  0  0  0  0  0  8  0  0
   -2.7358   -0.7250    1.6235 C   0  0  0  0  0  0  0  0  0  9  0  0
   -4.0164   -0.4151    2.0803 C   0  0  0  0  0  0  0  0  0 10  0  0
   -4.8703   -0.9339    1.6721 H   0  0  0  0  0  0  0  0  0 33  0  0
   -4.1351    0.5575    3.0411 C   0  0  0  0  0  0  0  0  0 11  0  0
   -5.1162    0.8275    3.4026 H   0  0  0  0  0  0  0  0  0 32  0  0
   -3.0263    1.2274    3.5543 C   0  0  0  0  0  0  0  0  0 12  0  0
   -3.1648    1.9920    4.3020 H   0  0  0  0  0  0  0  0  0 31  0  0
   -1.7422    0.9358    3.1320 C   0  0  0  0  0  0  0  0  0 13  0  0
   -0.8850    1.4634    3.5246 H   0  0  0  0  0  0  0  0  0 30  0  0
   -1.6105   -0.0555    2.1589 C   0  0  0  0  0  0  0  0  0 14  0  0
   -0.5264   -0.5884    1.5103 N   0  0  0  0  0  0  0  0  0 15  0  0
    0.8588   -0.2639    1.7688 C   0  0  0  0  0  0  0  0  0 16  0  0
    1.5090    0.5983    0.7263 C   0  0  0  0  0  0  0  0  0 17  0  0
    2.7303    0.2600    0.1778 C   0  0  0  0  0  0  0  0  0 18  0  0
    3.2144   -0.6575    0.4855 H   0  0  0  0  0  0  0  0  0 27  0  0
    3.3551    1.0761   -0.7579 C   0  0  0  0  0  0  0  0  0 19  0  0
    4.3236    0.7851   -1.1594 H   0  0  0  0  0  0  0  0  0 26  0  0
    2.7530    2.2506   -1.1724 C   0  0  0  0  0  0  0  0  0 20  0  0
    3.2298    2.8723   -1.9027 H   0  0  0  0  0  0  0  0  0 25  0  0
    1.5203    2.6077   -0.6479 C   0  0  0  0  0  0  0  0  0 21  0  0
    1.0229    3.5129   -0.9432 H   0  0  0  0  0  0  0  0  0 24  0  0
    0.9268    1.7896    0.3028 C   0  0  0  0  0  0  0  0  0 22  0  0
   -0.2452    2.1830    0.8318 F   0  0  0  0  0  0  0  0  0 23  0  0
    0.8906    0.2549    2.7368 H   0  0  0  0  0  0  0  0  0 28  0  0
    1.4247   -1.1956    1.8643 H   0  0  0  0  0  0  0  0  0 29  0  0
   -0.8645   -3.0640   -0.7570 H   0  0  0  0  0  0  0  0  0 34  0  0
    0.4977   -3.0055    0.3831 H   0  0  0  0  0  0  0  0  0 35  0  0
    0.8155    0.8675   -3.2762 H   0  0  0  0  0  0  0  0  0 36  0  0
    2.1070   -0.2294   -2.7608 H   0  0  0  0  0  0  0  0  0 37  0  0
   -0.3111   -0.9896   -4.4929 H   0  0  0  0  0  0  0  0  0 38  0  0
    0.9851   -2.1013   -4.0315 H   0  0  0  0  0  0  0  0  0 39  0  0
    1.3385   -0.7340   -5.0959 H   0  0  0  0  0  0  0  0  0 40  0  0
  1  2  1  0
  2  3  1  0
  3  4  2  0
  3  5  1  0
  5  6  1  0
  5  7  1  0
  7  8  1  0
  8  9  4  0
  9 10  4  0
 10 11  4  0
 11 12  1  0
 11 13  4  0
 13 14  1  0
 13 15  4  0
 15 16  1  0
 15 17  4  0
 17 18  1  0
 17 19  4  0
 19 20  4  0
 20 21  1  0
 21 22  1  0
 22 23  4  0
 23 24  1  0
 23 25  4  0
 25 26  1  0
 25 27  4  0
 27 28  1  0
 27 29  4  0
 29 30  1  0
 29 31  4  0
 31 32  1  0
 21 33  1  0
 21 34  1  0
  7 35  1  0
  7 36  1  0
  2 37  1  0
  2 38  1  0
  1 39  1  0
  1 40  1  0
  1 41  1  0
 20  8  4  0
 31 22  4  0
 19 10  4  0
M  END
>  <sample_id>  (59)
train::CCC(=O)NCc1nc2ccccc2n1Cc1ccccc1F__gen0001

>  <partition>  (59)
BAT_EXTERNAL_CONFIRM

>  <method>  (59)
BA_seed193

>  <candidate>  (59)
primary

$$$$
train::CCC(=O)NCc1nc2ccccc2n1Cc1ccccc1F__gen0002
     RDKit          3D

 41 43  0  0  0  0  0  0  0  0999 V2000
   -2.4331   -4.1427    1.9239 C   0  0  0  0  0  0  0  0  0  0  0  0
   -2.1934   -3.8093    0.4482 C   0  0  0  0  0  0  0  0  0  1  0  0
   -0.9045   -3.0724    0.1191 C   0  0  0  0  0  0  0  0  0  2  0  0
   -0.6514   -2.7274   -1.0122 O   0  0  0  0  0  0  0  0  0  3  0  0
   -0.0339   -2.8568    1.1478 N   0  0  0  0  0  0  0  0  0  4  0  0
   -0.3589   -2.9676    2.0952 H   0  0  0  0  0  0  0  0  0  5  0  0
    1.0911   -1.9919    0.9567 C   0  0  0  0  0  0  0  0  0  6  0  0
    0.6984   -0.5767    1.2192 C   0  0  0  0  0  0  0  0  0  7  0  0
   -0.2201   -0.2523    2.0970 N   0  0  0  0  0  0  0  0  0  8  0  0
   -0.3486    1.0975    2.0304 C   0  0  0  0  0  0  0  0  0  9  0  0
   -1.1771    1.9738    2.7316 C   0  0  0  0  0  0  0  0  0 10  0  0
   -1.8552    1.5963    3.4792 H   0  0  0  0  0  0  0  0  0 33  0  0
   -1.0862    3.3218    2.4512 C   0  0  0  0  0  0  0  0  0 11  0  0
   -1.7215    4.0229    2.9675 H   0  0  0  0  0  0  0  0  0 32  0  0
   -0.2017    3.8032    1.4830 C   0  0  0  0  0  0  0  0  0 12  0  0
   -0.1672    4.8634    1.2785 H   0  0  0  0  0  0  0  0  0 31  0  0
    0.6309    2.9578    0.7727 C   0  0  0  0  0  0  0  0  0 13  0  0
    1.3030    3.3326    0.0203 H   0  0  0  0  0  0  0  0  0 30  0  0
    0.5556    1.5987    1.0620 C   0  0  0  0  0  0  0  0  0 14  0  0
    1.2131    0.5050    0.5678 N   0  0  0  0  0  0  0  0  0 15  0  0
    2.1708    0.5522   -0.5080 C   0  0  0  0  0  0  0  0  0 16  0  0
    1.5272    1.0282   -1.7896 C   0  0  0  0  0  0  0  0  0 17  0  0
    0.2533    0.6034   -2.1497 C   0  0  0  0  0  0  0  0  0 18  0  0
   -0.2772   -0.0977   -1.5169 H   0  0  0  0  0  0  0  0  0 27  0  0
   -0.3296    1.0457   -3.3272 C   0  0  0  0  0  0  0  0  0 19  0  0
   -1.3229    0.7100   -3.5818 H   0  0  0  0  0  0  0  0  0 26  0  0
    0.3546    1.9248   -4.1507 C   0  0  0  0  0  0  0  0  0 20  0  0
   -0.1065    2.2725   -5.0629 H   0  0  0  0  0  0  0  0  0 25  0  0
    1.6265    2.3487   -3.8147 C   0  0  0  0  0  0  0  0  0 21  0  0
    2.1782    3.0256   -4.4441 H   0  0  0  0  0  0  0  0  0 24  0  0
    2.1941    1.8881   -2.6454 C   0  0  0  0  0  0  0  0  0 22  0  0
    3.4298    2.3071   -2.3134 F   0  0  0  0  0  0  0  0  0 23  0  0
    2.9927    1.2284   -0.2354 H   0  0  0  0  0  0  0  0  0 28  0  0
    2.5961   -0.4481   -0.6541 H   0  0  0  0  0  0  0  0  0 29  0  0
    1.4122   -2.1168   -0.0811 H   0  0  0  0  0  0  0  0  0 34  0  0
    1.8975   -2.2969    1.6368 H   0  0  0  0  0  0  0  0  0 35  0  0
   -2.1854   -4.7323   -0.1359 H   0  0  0  0  0  0  0  0  0 36  0  0
   -3.0144   -3.2004    0.0782 H   0  0  0  0  0  0  0  0  0 37  0  0
   -2.4757   -3.2455    2.5333 H   0  0  0  0  0  0  0  0  0 38  0  0
   -1.6710   -4.8189    2.3126 H   0  0  0  0  0  0  0  0  0 39  0  0
   -3.3896   -4.6542    2.0109 H   0  0  0  0  0  0  0  0  0 40  0  0
  1  2  1  0
  2  3  1  0
  3  4  2  0
  3  5  1  0
  5  6  1  0
  5  7  1  0
  7  8  1  0
  8  9  4  0
  9 10  4  0
 10 11  4  0
 11 12  1  0
 11 13  4  0
 13 14  1  0
 13 15  4  0
 15 16  1  0
 15 17  4  0
 17 18  1  0
 17 19  4  0
 19 20  4  0
 20 21  1  0
 21 22  1  0
 22 23  4  0
 23 24  1  0
 23 25  4  0
 25 26  1  0
 25 27  4  0
 27 28  1  0
 27 29  4  0
 29 30  1  0
 29 31  4  0
 31 32  1  0
 21 33  1  0
 21 34  1  0
  7 35  1  0
  7 36  1  0
  2 37  1  0
  2 38  1  0
  1 39  1  0
  1 40  1  0
  1 41  1  0
 20  8  4  0
 31 22  4  0
 19 10  4  0
M  END
>  <sample_id>  (60)
train::CCC(=O)NCc1nc2ccccc2n1Cc1ccccc1F__gen0002

>  <partition>  (60)
BAT_EXTERNAL_CONFIRM

>  <method>  (60)
BA_seed193

>  <candidate>  (60)
primary

$$$$
train::O=C(O)c1ccc2c(c1)SC1=NS(=O)(=O)CCN12__gen0000
     RDKit          3D

 26 28  0  0  0  0  0  0  0  0999 V2000
   -5.2221   -0.0778   -0.0265 O   0  0  0  0  0  0  0  0  0  0  0  0
   -4.3779    0.7283   -0.3424 C   0  0  0  0  0  0  0  0  0  1  0  0
   -4.7044    1.9167   -0.8637 O   0  0  0  0  0  0  0  0  0  2  0  0
   -5.6706    1.9918   -0.9304 H   0  0  0  0  0  0  0  0  0  3  0  0
   -2.9217    0.5258   -0.1996 C   0  0  0  0  0  0  0  0  0  4  0  0
   -2.4775   -0.6939    0.3454 C   0  0  0  0  0  0  0  0  0  5  0  0
   -3.1858   -1.4444    0.6371 H   0  0  0  0  0  0  0  0  0 25  0  0
   -1.1151   -0.8892    0.4691 C   0  0  0  0  0  0  0  0  0  6  0  0
   -0.1965    0.0866    0.0599 C   0  0  0  0  0  0  0  0  0  7  0  0
   -0.6456    1.2951   -0.4572 C   0  0  0  0  0  0  0  0  0  8  0  0
    0.0455    2.0695   -0.7573 H   0  0  0  0  0  0  0  0  0 11  0  0
   -2.0027    1.4990   -0.5892 C   0  0  0  0  0  0  0  0  0  9  0  0
   -2.3822    2.4293   -0.9893 H   0  0  0  0  0  0  0  0  0 10  0  0
    1.1210   -0.3087    0.2588 N   0  0  0  0  0  0  0  0  0 12  0  0
    1.2677   -1.5538    0.8383 C   0  0  0  0  0  0  0  0  0 13  0  0
    2.3319   -2.1667    1.1257 N   0  0  0  0  0  0  0  0  0 14  0  0
    3.8082   -1.5016    0.8037 S   0  0  1  0  0  6  0  0  0 15  0  0
    4.1854   -0.6643    1.9137 O   0  0  0  0  0  0  0  0  0 16  0  0
    4.7032   -2.5134    0.3546 O   0  0  0  0  0  0  0  0  0 17  0  0
    3.4054   -0.3749   -0.5901 C   0  0  0  0  0  0  0  0  0 18  0  0
    4.2933    0.2041   -0.8337 H   0  0  0  0  0  0  0  0  0 22  0  0
    3.1013   -1.0012   -1.4193 H   0  0  0  0  0  0  0  0  0 23  0  0
    2.2847    0.4976   -0.0440 C   0  0  0  0  0  0  0  0  0 19  0  0
    1.9985    1.2669   -0.7679 H   0  0  0  0  0  0  0  0  0 20  0  0
    2.6531    0.9701    0.8786 H   0  0  0  0  0  0  0  0  0 21  0  0
   -0.2971   -2.2907    1.1258 S   0  0  0  0  0  0  0  0  0 24  0  0
  1  2  2  0
  2  3  1  0
  3  4  1  0
  2  5  1  0
  5  6  4  0
  6  7  1  0
  6  8  4  0
  8  9  4  0
  9 10  4  0
 10 11  1  0
 10 12  4  0
 12 13  1  0
  9 14  1  0
 14 15  1  0
 15 16  2  0
 16 17  1  0
 17 18  2  0
 17 19  2  0
 17 20  1  6
 20 21  1  0
 20 22  1  0
 20 23  1  0
 23 24  1  0
 23 25  1  0
 15 26  1  0
 12  5  4  0
 23 14  1  0
 26  8  1  0
M  END
>  <sample_id>  (61)
train::O=C(O)c1ccc2c(c1)SC1=NS(=O)(=O)CCN12__gen0000

>  <partition>  (61)
BAT_EXTERNAL_CONFIRM

>  <method>  (61)
BA_seed193

>  <candidate>  (61)
primary

$$$$
train::O=C(O)c1ccc2c(c1)SC1=NS(=O)(=O)CCN12__gen0001
     RDKit          3D

 26 28  0  0  0  0  0  0  0  0999 V2000
   -3.5143   -2.8406    2.6230 O   0  0  0  0  0  0  0  0  0  0  0  0
   -2.3424   -2.9586    2.3607 C   0  0  0  0  0  0  0  0  0  1  0  0
   -1.6270   -4.0008    2.8230 O   0  0  0  0  0  0  0  0  0  2  0  0
   -2.1988   -4.5787    3.3472 H   0  0  0  0  0  0  0  0  0  3  0  0
   -1.5573   -2.0126    1.5524 C   0  0  0  0  0  0  0  0  0  4  0  0
   -2.2087   -0.8933    1.0217 C   0  0  0  0  0  0  0  0  0  5  0  0
   -3.2585   -0.7340    1.2159 H   0  0  0  0  0  0  0  0  0 25  0  0
   -1.4782   -0.0093    0.2624 C   0  0  0  0  0  0  0  0  0  6  0  0
   -0.1143   -0.1872    0.0179 C   0  0  0  0  0  0  0  0  0  7  0  0
    0.5315   -1.3099    0.5349 C   0  0  0  0  0  0  0  0  0  8  0  0
    1.5719   -1.5103    0.3377 H   0  0  0  0  0  0  0  0  0 11  0  0
   -0.1952   -2.2088    1.2971 C   0  0  0  0  0  0  0  0  0  9  0  0
    0.2806   -3.0879    1.7020 H   0  0  0  0  0  0  0  0  0 10  0  0
    0.4461    0.8095   -0.7532 N   0  0  0  0  0  0  0  0  0 12  0  0
   -0.4431    1.8071   -1.1220 C   0  0  0  0  0  0  0  0  0 13  0  0
   -0.2179    2.8444   -1.8210 N   0  0  0  0  0  0  0  0  0 14  0  0
    1.2971    3.1745   -2.3708 S   0  0  1  0  0  6  0  0  0 15  0  0
    1.4796    2.5047   -3.6329 O   0  0  0  0  0  0  0  0  0 16  0  0
    1.5472    4.5785   -2.2936 O   0  0  0  0  0  0  0  0  0 17  0  0
    2.3297    2.3119   -1.1367 C   0  0  0  0  0  0  0  0  0 18  0  0
    3.3613    2.3945   -1.4672 H   0  0  0  0  0  0  0  0  0 22  0  0
    2.1756    2.8121   -0.1880 H   0  0  0  0  0  0  0  0  0 23  0  0
    1.8351    0.8826   -1.1585 C   0  0  0  0  0  0  0  0  0 19  0  0
    2.4274    0.2693   -0.4648 H   0  0  0  0  0  0  0  0  0 20  0  0
    1.9312    0.4902   -2.1726 H   0  0  0  0  0  0  0  0  0 21  0  0
   -2.0586    1.4527   -0.5147 S   0  0  0  0  0  0  0  0  0 24  0  0
  1  2  2  0
  2  3  1  0
  3  4  1  0
  2  5  1  0
  5  6  4  0
  6  7  1  0
  6  8  4  0
  8  9  4  0
  9 10  4  0
 10 11  1  0
 10 12  4  0
 12 13  1  0
  9 14  1  0
 14 15  1  0
 15 16  2  0
 16 17  1  0
 17 18  2  0
 17 19  2  0
 17 20  1  1
 20 21  1  0
 20 22  1  0
 20 23  1  0
 23 24  1  0
 23 25  1  0
 15 26  1  0
 12  5  4  0
 23 14  1  0
 26  8  1  0
M  END
>  <sample_id>  (62)
train::O=C(O)c1ccc2c(c1)SC1=NS(=O)(=O)CCN12__gen0001

>  <partition>  (62)
BAT_EXTERNAL_CONFIRM

>  <method>  (62)
BA_seed193

>  <candidate>  (62)
primary

$$$$
train::O=C(O)c1ccc2c(c1)SC1=NS(=O)(=O)CCN12__gen0002
     RDKit          3D

 26 28  0  0  0  0  0  0  0  0999 V2000
   -3.9300    0.8920   -3.3370 O   0  0  0  0  0  0  0  0  0  0  0  0
   -2.7889    1.2749   -3.2203 C   0  0  0  0  0  0  0  0  0  1  0  0
   -2.2607    2.1353   -4.1155 O   0  0  0  0  0  0  0  0  0  2  0  0
   -2.9338    2.3470   -4.7865 H   0  0  0  0  0  0  0  0  0  3  0  0
   -1.8580    0.8790   -2.1529 C   0  0  0  0  0  0  0  0  0  4  0  0
   -2.3204    0.0052   -1.1644 C   0  0  0  0  0  0  0  0  0  5  0  0
   -3.3424   -0.3497   -1.1921 H   0  0  0  0  0  0  0  0  0 25  0  0
   -1.4479   -0.3516   -0.1609 C   0  0  0  0  0  0  0  0  0  6  0  0
   -0.1375    0.1008   -0.1392 C   0  0  0  0  0  0  0  0  0  7  0  0
    0.3200    0.9828   -1.1063 C   0  0  0  0  0  0  0  0  0  8  0  0
    1.3306    1.3714   -1.0894 H   0  0  0  0  0  0  0  0  0 11  0  0
   -0.5458    1.3666   -2.1134 C   0  0  0  0  0  0  0  0  0  9  0  0
   -0.2164    2.0430   -2.8896 H   0  0  0  0  0  0  0  0  0 10  0  0
    0.5796   -0.3912    0.9453 N   0  0  0  0  0  0  0  0  0 12  0  0
   -0.1369   -1.1795    1.8105 C   0  0  0  0  0  0  0  0  0 13  0  0
    0.2247   -1.7098    2.9031 N   0  0  0  0  0  0  0  0  0 14  0  0
    1.7738   -1.5049    3.4655 S   0  0  1  0  0  6  0  0  0 15  0  0
    1.8297   -0.2743    4.2012 O   0  0  0  0  0  0  0  0  0 16  0  0
    2.2272   -2.7067    4.0811 O   0  0  0  0  0  0  0  0  0 17  0  0
    2.6688   -1.2435    1.8935 C   0  0  0  0  0  0  0  0  0 18  0  0
    2.5926   -2.1686    1.3396 H   0  0  0  0  0  0  0  0  0 22  0  0
    3.7003   -1.0138    2.1391 H   0  0  0  0  0  0  0  0  0 23  0  0
    1.9659   -0.0710    1.2340 C   0  0  0  0  0  0  0  0  0 19  0  0
    2.4692    0.1974    0.2992 H   0  0  0  0  0  0  0  0  0 20  0  0
    2.0046    0.7771    1.9283 H   0  0  0  0  0  0  0  0  0 21  0  0
   -1.7684   -1.4079    1.2271 S   0  0  0  0  0  0  0  0  0 24  0  0
  1  2  2  0
  2  3  1  0
  3  4  1  0
  2  5  1  0
  5  6  4  0
  6  7  1  0
  6  8  4  0
  8  9  4  0
  9 10  4  0
 10 11  1  0
 10 12  4  0
 12 13  1  0
  9 14  1  0
 14 15  1  0
 15 16  2  0
 16 17  1  0
 17 18  2  0
 17 19  2  0
 17 20  1  6
 20 21  1  0
 20 22  1  0
 20 23  1  0
 23 24  1  0
 23 25  1  0
 15 26  1  0
 12  5  4  0
 23 14  1  0
 26  8  1  0
M  END
>  <sample_id>  (63)
train::O=C(O)c1ccc2c(c1)SC1=NS(=O)(=O)CCN12__gen0002

>  <partition>  (63)
BAT_EXTERNAL_CONFIRM

>  <method>  (63)
BA_seed193

>  <candidate>  (63)
primary

$$$$
train::O=C(c1ccc([N+](=O)[O-])cc1)N1CCSC1c1cccc(Cl)c1__gen0000
     RDKit          3D

 36 38  0  0  0  0  0  0  0  0999 V2000
   -1.7716    2.4780    1.2465 O   0  0  0  0  0  0  0  0  0  0  0  0
   -1.4295    1.3951    0.8280 C   0  0  0  0  0  0  0  0  0  1  0  0
   -2.2000    0.6905   -0.0385 N   0  0  0  0  0  0  0  0  0  2  0  0
   -1.8376   -0.5252   -0.7494 C   0  0  2  0  0  0  0  0  0  3  0  0
   -0.3915   -0.6766   -1.1002 C   0  0  0  0  0  0  0  0  0  4  0  0
    0.2857   -1.8406   -0.7702 C   0  0  0  0  0  0  0  0  0  5  0  0
   -0.2468   -2.6458   -0.2707 H   0  0  0  0  0  0  0  0  0 14  0  0
    1.6244   -1.9732   -1.0776 C   0  0  0  0  0  0  0  0  0  6  0  0
    2.1430   -2.8805   -0.8148 H   0  0  0  0  0  0  0  0  0 13  0  0
    2.3104   -0.9509   -1.7008 C   0  0  0  0  0  0  0  0  0  7  0  0
    3.3632   -1.0325   -1.9399 H   0  0  0  0  0  0  0  0  0 12  0  0
    1.6272    0.2336   -2.0466 C   0  0  0  0  0  0  0  0  0  8  0  0
    2.4589    1.5007   -2.8223 Cl  0  0  0  0  0  0  0  0  0 11  0  0
    0.2775    0.3534   -1.7420 C   0  0  0  0  0  0  0  0  0  9  0  0
   -0.2411    1.2668   -2.0186 H   0  0  0  0  0  0  0  0  0 10  0  0
   -2.2054   -1.4120   -0.2268 H   0  0  0  0  0  0  0  0  0 15  0  0
   -2.8158   -0.4427   -2.3512 S   0  0  0  0  0  0  0  0  0 16  0  0
   -3.5997    1.1529   -1.9183 C   0  0  0  0  0  0  0  0  0 17  0  0
   -4.6110    1.1423   -2.2967 H   0  0  0  0  0  0  0  0  0 21  0  0
   -3.0305    1.9580   -2.3714 H   0  0  0  0  0  0  0  0  0 22  0  0
   -3.4992    1.1970   -0.4144 C   0  0  0  0  0  0  0  0  0 18  0  0
   -4.2854    0.5552    0.0413 H   0  0  0  0  0  0  0  0  0 19  0  0
   -3.6051    2.2137   -0.0210 H   0  0  0  0  0  0  0  0  0 20  0  0
   -0.1524    0.7453    1.2668 C   0  0  0  0  0  0  0  0  0 23  0  0
    1.0517    1.3948    1.0201 C   0  0  0  0  0  0  0  0  0 24  0  0
    1.0438    2.3545    0.5151 H   0  0  0  0  0  0  0  0  0 35  0  0
    2.2411    0.8208    1.4181 C   0  0  0  0  0  0  0  0  0 25  0  0
    3.1869    1.2989    1.2095 H   0  0  0  0  0  0  0  0  0 34  0  0
    2.2235   -0.3985    2.0652 C   0  0  0  0  0  0  0  0  0 26  0  0
    3.4526   -1.0360    2.4221 N   0  0  0  0  0  0  0  0  0 31  0  0
    3.3870   -2.1458    2.9171 O   0  0  0  0  0  0  0  0  0 32  0  0
    4.4849   -0.4632    2.1791 O   0  0  0  0  0  0  0  0  0 33  0  0
    1.0179   -1.0234    2.3906 C   0  0  0  0  0  0  0  0  0 27  0  0
    1.0387   -1.9555    2.9347 H   0  0  0  0  0  0  0  0  0 30  0  0
   -0.1803   -0.4477    1.9878 C   0  0  0  0  0  0  0  0  0 28  0  0
   -1.1155   -0.9017    2.2496 H   0  0  0  0  0  0  0  0  0 29  0  0
  1  2  2  0
  2  3  1  0
  3  4  1  0
  4  5  1  0
  5  6  4  0
  6  7  1  0
  6  8  4  0
  8  9  1  0
  8 10  4  0
 10 11  1  0
 10 12  4  0
 12 13  1  0
 12 14  4  0
 14 15  1  0
  4 16  1  1
  4 17  1  0
 17 18  1  0
 18 19  1  0
 18 20  1  0
 18 21  1  0
 21 22  1  0
 21 23  1  0
  2 24  1  0
 24 25  4  0
 25 26  1  0
 25 27  4  0
 27 28  1  0
 27 29  4  0
 29 30  1  0
 30 31  2  0
 30 32  1  0
 29 33  4  0
 33 34  1  0
 33 35  4  0
 35 36  1  0
 21  3  1  0
 35 24  4  0
 14  5  4  0
M  CHG  2  30   1  32  -1
M  END
>  <sample_id>  (64)
train::O=C(c1ccc([N+](=O)[O-])cc1)N1CCSC1c1cccc(Cl)c1__gen0000

>  <partition>  (64)
BAT_EXTERNAL_CONFIRM

>  <method>  (64)
BA_seed193

>  <candidate>  (64)
primary

$$$$
train::O=C(c1ccc([N+](=O)[O-])cc1)N1CCSC1c1cccc(Cl)c1__gen0001
     RDKit          3D

 36 38  0  0  0  0  0  0  0  0999 V2000
   -2.2181    2.4513    0.2823 O   0  0  0  0  0  0  0  0  0  0  0  0
   -1.7282    1.3412    0.2196 C   0  0  0  0  0  0  0  0  0  1  0  0
   -2.1347    0.4174   -0.6837 N   0  0  0  0  0  0  0  0  0  2  0  0
   -1.5039   -0.8489   -0.8674 C   0  0  2  0  0  0  0  0  0  3  0  0
   -0.0040   -0.7742   -1.0493 C   0  0  0  0  0  0  0  0  0  4  0  0
    0.5663    0.1773   -1.8647 C   0  0  0  0  0  0  0  0  0  5  0  0
   -0.0617    0.8666   -2.4207 H   0  0  0  0  0  0  0  0  0 14  0  0
    1.9471    0.2504   -1.9899 C   0  0  0  0  0  0  0  0  0  6  0  0
    2.3830    1.0016   -2.6368 H   0  0  0  0  0  0  0  0  0 13  0  0
    2.7612   -0.5984   -1.2765 C   0  0  0  0  0  0  0  0  0  7  0  0
    3.8386   -0.5349   -1.3465 H   0  0  0  0  0  0  0  0  0 12  0  0
    2.1801   -1.5620   -0.4634 C   0  0  0  0  0  0  0  0  0  8  0  0
    3.1666   -2.6304    0.4678 Cl  0  0  0  0  0  0  0  0  0 11  0  0
    0.7910   -1.6638   -0.3521 C   0  0  0  0  0  0  0  0  0  9  0  0
    0.3599   -2.4198    0.3039 H   0  0  0  0  0  0  0  0  0 10  0  0
   -1.7433   -1.5422   -0.0534 H   0  0  0  0  0  0  0  0  0 15  0  0
   -2.3020   -1.6061   -2.3860 S   0  0  0  0  0  0  0  0  0 16  0  0
   -2.9204   -0.0008   -2.9110 C   0  0  0  0  0  0  0  0  0 17  0  0
   -3.8046   -0.1453   -3.5208 H   0  0  0  0  0  0  0  0  0 21  0  0
   -2.1457    0.5046   -3.4920 H   0  0  0  0  0  0  0  0  0 22  0  0
   -3.2160    0.7379   -1.5972 C   0  0  0  0  0  0  0  0  0 18  0  0
   -3.2673    1.8178   -1.7254 H   0  0  0  0  0  0  0  0  0 19  0  0
   -4.1608    0.3823   -1.1744 H   0  0  0  0  0  0  0  0  0 20  0  0
   -0.6064    0.9214    1.1212 C   0  0  0  0  0  0  0  0  0 23  0  0
   -0.7886   -0.0778    2.0742 C   0  0  0  0  0  0  0  0  0 24  0  0
   -1.7560   -0.5394    2.2053 H   0  0  0  0  0  0  0  0  0 35  0  0
    0.2692   -0.4573    2.8659 C   0  0  0  0  0  0  0  0  0 25  0  0
    0.1529   -1.2232    3.6254 H   0  0  0  0  0  0  0  0  0 34  0  0
    1.5055    0.1471    2.7060 C   0  0  0  0  0  0  0  0  0 26  0  0
    2.6349   -0.2819    3.4978 N   0  0  0  0  0  0  0  0  0 31  0  0
    3.6988    0.2460    3.3065 O   0  0  0  0  0  0  0  0  0 32  0  0
    2.4283   -1.1513    4.3300 O   0  0  0  0  0  0  0  0  0 33  0  0
    1.6858    1.1888    1.7975 C   0  0  0  0  0  0  0  0  0 27  0  0
    2.6401    1.6542    1.7072 H   0  0  0  0  0  0  0  0  0 30  0  0
    0.6201    1.5694    1.0032 C   0  0  0  0  0  0  0  0  0 28  0  0
    0.7323    2.3827    0.2975 H   0  0  0  0  0  0  0  0  0 29  0  0
  1  2  2  0
  2  3  1  0
  3  4  1  0
  4  5  1  0
  5  6  4  0
  6  7  1  0
  6  8  4  0
  8  9  1  0
  8 10  4  0
 10 11  1  0
 10 12  4  0
 12 13  1  0
 12 14  4  0
 14 15  1  0
  4 16  1  1
  4 17  1  0
 17 18  1  0
 18 19  1  0
 18 20  1  0
 18 21  1  0
 21 22  1  0
 21 23  1  0
  2 24  1  0
 24 25  4  0
 25 26  1  0
 25 27  4  0
 27 28  1  0
 27 29  4  0
 29 30  1  0
 30 31  2  0
 30 32  1  0
 29 33  4  0
 33 34  1  0
 33 35  4  0
 35 36  1  0
 21  3  1  0
 35 24  4  0
 14  5  4  0
M  CHG  2  30   1  32  -1
M  END
>  <sample_id>  (65)
train::O=C(c1ccc([N+](=O)[O-])cc1)N1CCSC1c1cccc(Cl)c1__gen0001

>  <partition>  (65)
BAT_EXTERNAL_CONFIRM

>  <method>  (65)
BA_seed193

>  <candidate>  (65)
primary

$$$$
train::O=C(c1ccc([N+](=O)[O-])cc1)N1CCSC1c1cccc(Cl)c1__gen0002
     RDKit          3D

 36 38  0  0  0  0  0  0  0  0999 V2000
    2.4327    1.7399   -1.3946 O   0  0  0  0  0  0  0  0  0  0  0  0
    1.7052    0.8348   -1.0353 C   0  0  0  0  0  0  0  0  0  1  0  0
    2.1449   -0.2195   -0.3242 N   0  0  0  0  0  0  0  0  0  2  0  0
    1.2821   -1.2674    0.1640 C   0  0  2  0  0  0  0  0  0  3  0  0
    0.1836   -0.7799    1.0841 C   0  0  0  0  0  0  0  0  0  4  0  0
   -1.1129   -1.2659    0.9470 C   0  0  0  0  0  0  0  0  0  5  0  0
   -1.3261   -1.9780    0.1489 H   0  0  0  0  0  0  0  0  0 14  0  0
   -2.1105   -0.8251    1.7861 C   0  0  0  0  0  0  0  0  0  6  0  0
   -3.1134   -1.1860    1.6702 H   0  0  0  0  0  0  0  0  0 13  0  0
   -1.8395    0.0910    2.7840 C   0  0  0  0  0  0  0  0  0  7  0  0
   -2.6143    0.4388    3.4451 H   0  0  0  0  0  0  0  0  0 12  0  0
   -0.5414    0.5730    2.9313 C   0  0  0  0  0  0  0  0  0  8  0  0
   -0.1789    1.7211    4.1691 Cl  0  0  0  0  0  0  0  0  0 11  0  0
    0.4728    0.1334    2.0868 C   0  0  0  0  0  0  0  0  0  9  0  0
    1.4700    0.5417    2.2029 H   0  0  0  0  0  0  0  0  0 10  0  0
    0.8456   -1.8460   -0.6665 H   0  0  0  0  0  0  0  0  0 15  0  0
    2.3514   -2.4305    1.0955 S   0  0  0  0  0  0  0  0  0 16  0  0
    3.6648   -1.1481    1.2953 C   0  0  0  0  0  0  0  0  0 17  0  0
    3.4794   -0.5588    2.1868 H   0  0  0  0  0  0  0  0  0 21  0  0
    4.6133   -1.6596    1.3786 H   0  0  0  0  0  0  0  0  0 22  0  0
    3.5445   -0.3094    0.0310 C   0  0  0  0  0  0  0  0  0 18  0  0
    3.9522    0.6949    0.1642 H   0  0  0  0  0  0  0  0  0 19  0  0
    4.0976   -0.7989   -0.7849 H   0  0  0  0  0  0  0  0  0 20  0  0
    0.2372    0.7864   -1.4089 C   0  0  0  0  0  0  0  0  0 23  0  0
   -0.1528    0.0156   -2.4931 C   0  0  0  0  0  0  0  0  0 24  0  0
    0.5650   -0.5356   -3.0682 H   0  0  0  0  0  0  0  0  0 35  0  0
   -1.4952   -0.0170   -2.8537 C   0  0  0  0  0  0  0  0  0 25  0  0
   -1.8385   -0.6137   -3.6825 H   0  0  0  0  0  0  0  0  0 34  0  0
   -2.4204    0.7092   -2.1100 C   0  0  0  0  0  0  0  0  0 26  0  0
   -3.8078    0.6325   -2.4514 N   0  0  0  0  0  0  0  0  0 31  0  0
   -4.5828    1.3260   -1.8079 O   0  0  0  0  0  0  0  0  0 32  0  0
   -4.1372   -0.1169   -3.3424 O   0  0  0  0  0  0  0  0  0 33  0  0
   -2.0158    1.5079   -1.0429 C   0  0  0  0  0  0  0  0  0 27  0  0
   -2.7466    2.0872   -0.5108 H   0  0  0  0  0  0  0  0  0 30  0  0
   -0.6650    1.5506   -0.7060 C   0  0  0  0  0  0  0  0  0 28  0  0
   -0.3430    2.1723    0.1126 H   0  0  0  0  0  0  0  0  0 29  0  0
  1  2  2  0
  2  3  1  0
  3  4  1  0
  4  5  1  0
  5  6  4  0
  6  7  1  0
  6  8  4  0
  8  9  1  0
  8 10  4  0
 10 11  1  0
 10 12  4  0
 12 13  1  0
 12 14  4  0
 14 15  1  0
  4 16  1  6
  4 17  1  0
 17 18  1  0
 18 19  1  0
 18 20  1  0
 18 21  1  0
 21 22  1  0
 21 23  1  0
  2 24  1  0
 24 25  4  0
 25 26  1  0
 25 27  4  0
 27 28  1  0
 27 29  4  0
 29 30  1  0
 30 31  2  0
 30 32  1  0
 29 33  4  0
 33 34  1  0
 33 35  4  0
 35 36  1  0
 21  3  1  0
 35 24  4  0
 14  5  4  0
M  CHG  2  30   1  32  -1
M  END
>  <sample_id>  (66)
train::O=C(c1ccc([N+](=O)[O-])cc1)N1CCSC1c1cccc(Cl)c1__gen0002

>  <partition>  (66)
BAT_EXTERNAL_CONFIRM

>  <method>  (66)
BA_seed193

>  <candidate>  (66)
primary

$$$$
train::CCOc1ccc(CN(C)C(=O)CCN2C(=O)c3ccccc3C2=O)cc1OC__gen0000
     RDKit          3D

 53 55  0  0  0  0  0  0  0  0999 V2000
   -2.7547   -2.3017   -3.3166 C   0  0  0  0  0  0  0  0  0  0  0  0
   -3.4613   -0.9531   -3.2268 C   0  0  0  0  0  0  0  0  0  1  0  0
   -3.8104   -0.6452   -4.2141 H   0  0  0  0  0  0  0  0  0  2  0  0
   -4.3293   -1.0312   -2.5543 H   0  0  0  0  0  0  0  0  0  3  0  0
   -2.6201    0.0830   -2.7906 O   0  0  0  0  0  0  0  0  0  4  0  0
   -2.3154    0.2487   -1.4898 C   0  0  0  0  0  0  0  0  0  5  0  0
   -2.7785   -0.5328   -0.4287 C   0  0  0  0  0  0  0  0  0  6  0  0
   -3.4111   -1.3891   -0.6202 H   0  0  0  0  0  0  0  0  0 49  0  0
   -2.4161   -0.2469    0.8730 C   0  0  0  0  0  0  0  0  0  7  0  0
   -2.7971   -0.8677    1.6740 H   0  0  0  0  0  0  0  0  0 48  0  0
   -1.6265    0.8590    1.1575 C   0  0  0  0  0  0  0  0  0  8  0  0
   -1.2297    1.2065    2.5692 C   0  0  0  0  0  0  0  0  0 17  0  0
    0.1274    0.7818    2.8851 N   0  0  0  0  0  0  0  0  0 18  0  0
    1.0896    1.7289    2.9311 C   0  0  0  0  0  0  0  0  0 19  0  0
    0.8517    2.9071    2.7350 O   0  0  0  0  0  0  0  0  0 20  0  0
    2.5327    1.3182    3.2394 C   0  0  0  0  0  0  0  0  0 21  0  0
    2.9449    2.0719    3.9146 H   0  0  0  0  0  0  0  0  0 22  0  0
    3.3605    1.3176    1.9476 C   0  0  0  0  0  0  0  0  0 23  0  0
    2.8610    0.3595    0.9845 N   0  0  0  0  0  0  0  0  0 24  0  0
    2.9736   -1.0104    1.1491 C   0  0  0  0  0  0  0  0  0 25  0  0
    3.5665   -1.5450    2.0579 O   0  0  0  0  0  0  0  0  0 26  0  0
    2.2346   -1.5989    0.0154 C   0  0  0  0  0  0  0  0  0 27  0  0
    2.0205   -2.9251   -0.3290 C   0  0  0  0  0  0  0  0  0 28  0  0
    2.4285   -3.7177    0.2769 H   0  0  0  0  0  0  0  0  0 38  0  0
    1.2762   -3.1873   -1.4649 C   0  0  0  0  0  0  0  0  0 29  0  0
    1.0941   -4.2023   -1.7667 H   0  0  0  0  0  0  0  0  0 37  0  0
    0.7704   -2.1489   -2.2439 C   0  0  0  0  0  0  0  0  0 30  0  0
    0.2064   -2.3764   -3.1326 H   0  0  0  0  0  0  0  0  0 36  0  0
    0.9931   -0.8240   -1.9144 C   0  0  0  0  0  0  0  0  0 31  0  0
    0.5922   -0.0061   -2.4884 H   0  0  0  0  0  0  0  0  0 35  0  0
    1.7309   -0.5595   -0.7667 C   0  0  0  0  0  0  0  0  0 32  0  0
    2.1465    0.7155   -0.1442 C   0  0  0  0  0  0  0  0  0 33  0  0
    1.9550    1.8406   -0.5083 O   0  0  0  0  0  0  0  0  0 34  0  0
    4.4026    1.0776    2.1767 H   0  0  0  0  0  0  0  0  0 39  0  0
    3.3019    2.3149    1.4979 H   0  0  0  0  0  0  0  0  0 40  0  0
    2.5927    0.3456    3.7229 H   0  0  0  0  0  0  0  0  0 41  0  0
    0.3103   -0.6260    3.1254 C   0  0  0  0  0  0  0  0  0 42  0  0
   -0.5459   -1.1723    2.7398 H   0  0  0  0  0  0  0  0  0 43  0  0
    1.1974   -0.9998    2.6343 H   0  0  0  0  0  0  0  0  0 44  0  0
    0.3997   -0.8290    4.1980 H   0  0  0  0  0  0  0  0  0 45  0  0
   -1.2635    2.2893    2.7105 H   0  0  0  0  0  0  0  0  0 46  0  0
   -1.9085    0.7360    3.2874 H   0  0  0  0  0  0  0  0  0 47  0  0
   -1.1367    1.6260    0.1182 C   0  0  0  0  0  0  0  0  0  9  0  0
   -0.5060    2.4731    0.3631 H   0  0  0  0  0  0  0  0  0 16  0  0
   -1.4791    1.3442   -1.2007 C   0  0  0  0  0  0  0  0  0 10  0  0
   -1.0609    2.0659   -2.2675 O   0  0  0  0  0  0  0  0  0 11  0  0
   -0.3402    3.2269   -2.0477 C   0  0  0  0  0  0  0  0  0 12  0  0
    0.6138    3.0406   -1.5521 H   0  0  0  0  0  0  0  0  0 13  0  0
   -0.9050    3.9544   -1.4486 H   0  0  0  0  0  0  0  0  0 14  0  0
   -0.1478    3.6662   -3.0286 H   0  0  0  0  0  0  0  0  0 15  0  0
   -3.4384   -3.0486   -3.7057 H   0  0  0  0  0  0  0  0  0 50  0  0
   -2.3940   -2.6255   -2.3419 H   0  0  0  0  0  0  0  0  0 51  0  0
   -1.8988   -2.2283   -3.9915 H   0  0  0  0  0  0  0  0  0 52  0  0
  1  2  1  0
  2  3  1  0
  2  4  1  0
  2  5  1  0
  5  6  1  0
  6  7  4  0
  7  8  1  0
  7  9  4  0
  9 10  1  0
  9 11  4  0
 11 12  1  0
 12 13  1  0
 13 14  1  0
 14 15  2  0
 14 16  1  0
 16 17  1  0
 16 18  1  0
 18 19  1  0
 19 20  1  0
 20 21  2  0
 20 22  1  0
 22 23  4  0
 23 24  1  0
 23 25  4  0
 25 26  1  0
 25 27  4  0
 27 28  1  0
 27 29  4  0
 29 30  1  0
 29 31  4  0
 31 32  1  0
 32 33  2  0
 18 34  1  0
 18 35  1  0
 16 36  1  0
 13 37  1  0
 37 38  1  0
 37 39  1  0
 37 40  1  0
 12 41  1  0
 12 42  1  0
 11 43  4  0
 43 44  1  0
 43 45  4  0
 45 46  1  0
 46 47  1  0
 47 48  1  0
 47 49  1  0
 47 50  1  0
  1 51  1  0
  1 52  1  0
  1 53  1  0
 45  6  4  0
 32 19  1  0
 31 22  4  0
M  END
>  <sample_id>  (67)
train::CCOc1ccc(CN(C)C(=O)CCN2C(=O)c3ccccc3C2=O)cc1OC__gen0000

>  <partition>  (67)
BAT_EXTERNAL_CONFIRM

>  <method>  (67)
BA_seed193

>  <candidate>  (67)
primary

$$$$
train::CCOc1ccc(CN(C)C(=O)CCN2C(=O)c3ccccc3C2=O)cc1OC__gen0001
     RDKit          3D

 53 55  0  0  0  0  0  0  0  0999 V2000
   -1.9926    2.8593    3.3441 C   0  0  0  0  0  0  0  0  0  0  0  0
   -2.7481    1.5823    3.0314 C   0  0  0  0  0  0  0  0  0  1  0  0
   -3.3848    1.7135    2.1460 H   0  0  0  0  0  0  0  0  0  2  0  0
   -3.3943    1.3299    3.8691 H   0  0  0  0  0  0  0  0  0  3  0  0
   -1.9012    0.4596    2.8835 O   0  0  0  0  0  0  0  0  0  4  0  0
   -1.6937   -0.0949    1.6483 C   0  0  0  0  0  0  0  0  0  5  0  0
   -1.5240   -1.4740    1.6253 C   0  0  0  0  0  0  0  0  0  6  0  0
   -1.5672   -1.9974    2.5723 H   0  0  0  0  0  0  0  0  0 49  0  0
   -1.3603   -2.1787    0.4524 C   0  0  0  0  0  0  0  0  0  7  0  0
   -1.2214   -3.2475    0.4672 H   0  0  0  0  0  0  0  0  0 48  0  0
   -1.3428   -1.4898   -0.7513 C   0  0  0  0  0  0  0  0  0  8  0  0
   -1.1897   -2.1915   -2.0930 C   0  0  0  0  0  0  0  0  0 17  0  0
    0.1588   -2.0408   -2.6149 N   0  0  0  0  0  0  0  0  0 18  0  0
    0.4505   -0.8917   -3.2489 C   0  0  0  0  0  0  0  0  0 19  0  0
   -0.4073   -0.0798   -3.5572 O   0  0  0  0  0  0  0  0  0 20  0  0
    1.9001   -0.5859   -3.6267 C   0  0  0  0  0  0  0  0  0 21  0  0
    1.8931    0.4292   -4.0410 H   0  0  0  0  0  0  0  0  0 22  0  0
    2.8998   -0.6403   -2.4549 C   0  0  0  0  0  0  0  0  0 23  0  0
    2.3239   -0.2484   -1.1875 N   0  0  0  0  0  0  0  0  0 24  0  0
    2.0054    1.0491   -0.8124 C   0  0  0  0  0  0  0  0  0 25  0  0
    2.0438    2.0164   -1.5305 O   0  0  0  0  0  0  0  0  0 26  0  0
    1.6553    0.9510    0.6228 C   0  0  0  0  0  0  0  0  0 27  0  0
    1.3440    1.9379    1.5351 C   0  0  0  0  0  0  0  0  0 28  0  0
    1.3066    2.9732    1.2171 H   0  0  0  0  0  0  0  0  0 38  0  0
    1.0913    1.5519    2.8426 C   0  0  0  0  0  0  0  0  0 29  0  0
    0.8560    2.3087    3.5690 H   0  0  0  0  0  0  0  0  0 37  0  0
    1.1289    0.2197    3.2260 C   0  0  0  0  0  0  0  0  0 30  0  0
    0.9139   -0.0452    4.2425 H   0  0  0  0  0  0  0  0  0 36  0  0
    1.4552   -0.7725    2.3121 C   0  0  0  0  0  0  0  0  0 31  0  0
    1.4846   -1.8070    2.5973 H   0  0  0  0  0  0  0  0  0 35  0  0
    1.7049   -0.3918    1.0085 C   0  0  0  0  0  0  0  0  0 32  0  0
    2.1562   -1.1735   -0.1555 C   0  0  0  0  0  0  0  0  0 33  0  0
    2.3806   -2.3536   -0.2565 O   0  0  0  0  0  0  0  0  0 34  0  0
    3.7062    0.0632   -2.6601 H   0  0  0  0  0  0  0  0  0 39  0  0
    3.3190   -1.6350   -2.3347 H   0  0  0  0  0  0  0  0  0 40  0  0
    2.2253   -1.2776   -4.4108 H   0  0  0  0  0  0  0  0  0 41  0  0
    1.0553   -3.1474   -2.4016 C   0  0  0  0  0  0  0  0  0 42  0  0
    0.5428   -4.0764   -2.6768 H   0  0  0  0  0  0  0  0  0 43  0  0
    1.3406   -3.2285   -1.3425 H   0  0  0  0  0  0  0  0  0 44  0  0
    1.9472   -3.0577   -3.0168 H   0  0  0  0  0  0  0  0  0 45  0  0
   -1.4091   -3.2541   -2.0044 H   0  0  0  0  0  0  0  0  0 46  0  0
   -1.8625   -1.7342   -2.8078 H   0  0  0  0  0  0  0  0  0 47  0  0
   -1.4624   -0.1080   -0.7462 C   0  0  0  0  0  0  0  0  0  9  0  0
   -1.4612    0.3880   -1.6986 H   0  0  0  0  0  0  0  0  0 16  0  0
   -1.6299    0.6024    0.4283 C   0  0  0  0  0  0  0  0  0 10  0  0
   -1.6637    1.9659    0.4781 O   0  0  0  0  0  0  0  0  0 11  0  0
   -1.6620    2.6732   -0.7634 C   0  0  0  0  0  0  0  0  0 12  0  0
   -1.7027    3.7308   -0.4990 H   0  0  0  0  0  0  0  0  0 13  0  0
   -2.5309    2.4173   -1.3768 H   0  0  0  0  0  0  0  0  0 14  0  0
   -0.7552    2.4660   -1.3449 H   0  0  0  0  0  0  0  0  0 15  0  0
   -1.3687    2.7034    4.2270 H   0  0  0  0  0  0  0  0  0 50  0  0
   -1.3622    3.1637    2.5006 H   0  0  0  0  0  0  0  0  0 51  0  0
   -2.6911    3.6678    3.5679 H   0  0  0  0  0  0  0  0  0 52  0  0
  1  2  1  0
  2  3  1  0
  2  4  1  0
  2  5  1  0
  5  6  1  0
  6  7  4  0
  7  8  1  0
  7  9  4  0
  9 10  1  0
  9 11  4  0
 11 12  1  0
 12 13  1  0
 13 14  1  0
 14 15  2  0
 14 16  1  0
 16 17  1  0
 16 18  1  0
 18 19  1  0
 19 20  1  0
 20 21  2  0
 20 22  1  0
 22 23  4  0
 23 24  1  0
 23 25  4  0
 25 26  1  0
 25 27  4  0
 27 28  1  0
 27 29  4  0
 29 30  1  0
 29 31  4  0
 31 32  1  0
 32 33  2  0
 18 34  1  0
 18 35  1  0
 16 36  1  0
 13 37  1  0
 37 38  1  0
 37 39  1  0
 37 40  1  0
 12 41  1  0
 12 42  1  0
 11 43  4  0
 43 44  1  0
 43 45  4  0
 45 46  1  0
 46 47  1  0
 47 48  1  0
 47 49  1  0
 47 50  1  0
  1 51  1  0
  1 52  1  0
  1 53  1  0
 45  6  4  0
 32 19  1  0
 31 22  4  0
M  END
>  <sample_id>  (68)
train::CCOc1ccc(CN(C)C(=O)CCN2C(=O)c3ccccc3C2=O)cc1OC__gen0001

>  <partition>  (68)
BAT_EXTERNAL_CONFIRM

>  <method>  (68)
BA_seed193

>  <candidate>  (68)
primary

$$$$
train::CCOc1ccc(CN(C)C(=O)CCN2C(=O)c3ccccc3C2=O)cc1OC__gen0002
     RDKit          3D

 53 55  0  0  0  0  0  0  0  0999 V2000
    0.7548   -5.2880   -1.6320 C   0  0  0  0  0  0  0  0  0  0  0  0
    0.1980   -3.9318   -2.0007 C   0  0  0  0  0  0  0  0  0  1  0  0
    0.9818   -3.3055   -2.4463 H   0  0  0  0  0  0  0  0  0  2  0  0
   -0.6267   -4.0296   -2.7156 H   0  0  0  0  0  0  0  0  0  3  0  0
   -0.2895   -3.3193   -0.8029 O   0  0  0  0  0  0  0  0  0  4  0  0
   -0.8602   -2.1060   -0.8703 C   0  0  0  0  0  0  0  0  0  5  0  0
   -0.9649   -1.3160   -2.0098 C   0  0  0  0  0  0  0  0  0  6  0  0
   -0.5839   -1.6678   -2.9570 H   0  0  0  0  0  0  0  0  0 49  0  0
   -1.5447   -0.0595   -1.9523 C   0  0  0  0  0  0  0  0  0  7  0  0
   -1.6175    0.5276   -2.8511 H   0  0  0  0  0  0  0  0  0 48  0  0
   -2.0468    0.4266   -0.7646 C   0  0  0  0  0  0  0  0  0  8  0  0
   -2.6434    1.8090   -0.6314 C   0  0  0  0  0  0  0  0  0 17  0  0
   -1.6409    2.7597   -0.2035 N   0  0  0  0  0  0  0  0  0 18  0  0
   -1.5741    3.0706    1.1187 C   0  0  0  0  0  0  0  0  0 19  0  0
   -2.3705    2.6385    1.9439 O   0  0  0  0  0  0  0  0  0 20  0  0
   -0.4447    3.9683    1.6087 C   0  0  0  0  0  0  0  0  0 21  0  0
    0.0927    4.4846    0.8184 H   0  0  0  0  0  0  0  0  0 22  0  0
    0.5304    3.1140    2.4473 C   0  0  0  0  0  0  0  0  0 23  0  0
    1.1798    2.0993    1.6594 N   0  0  0  0  0  0  0  0  0 24  0  0
    2.0347    2.3738    0.5991 C   0  0  0  0  0  0  0  0  0 25  0  0
    2.3698    3.4778    0.2688 O   0  0  0  0  0  0  0  0  0 26  0  0
    2.4155    1.0551    0.0476 C   0  0  0  0  0  0  0  0  0 27  0  0
    3.2317    0.7012   -1.0180 C   0  0  0  0  0  0  0  0  0 28  0  0
    3.7122    1.4745   -1.6064 H   0  0  0  0  0  0  0  0  0 38  0  0
    3.3978   -0.6383   -1.3076 C   0  0  0  0  0  0  0  0  0 29  0  0
    4.0110   -0.9416   -2.1389 H   0  0  0  0  0  0  0  0  0 37  0  0
    2.7576   -1.6174   -0.5538 C   0  0  0  0  0  0  0  0  0 30  0  0
    2.8970   -2.6568   -0.8035 H   0  0  0  0  0  0  0  0  0 36  0  0
    1.9407   -1.2839    0.5138 C   0  0  0  0  0  0  0  0  0 31  0  0
    1.4387   -2.0249    1.1034 H   0  0  0  0  0  0  0  0  0 35  0  0
    1.7866    0.0590    0.8034 C   0  0  0  0  0  0  0  0  0 32  0  0
    0.9920    0.7280    1.8576 C   0  0  0  0  0  0  0  0  0 33  0  0
    0.2955    0.2454    2.7143 O   0  0  0  0  0  0  0  0  0 34  0  0
   -0.0223    2.6075    3.2465 H   0  0  0  0  0  0  0  0  0 39  0  0
    1.3072    3.7577    2.8851 H   0  0  0  0  0  0  0  0  0 40  0  0
   -0.8844    4.7090    2.2766 H   0  0  0  0  0  0  0  0  0 41  0  0
   -0.6819    3.1863   -1.2018 C   0  0  0  0  0  0  0  0  0 42  0  0
   -0.9869    2.7896   -2.1668 H   0  0  0  0  0  0  0  0  0 43  0  0
   -0.6530    4.2699   -1.2713 H   0  0  0  0  0  0  0  0  0 44  0  0
    0.3184    2.8319   -0.9875 H   0  0  0  0  0  0  0  0  0 45  0  0
   -3.0626    2.1519   -1.5873 H   0  0  0  0  0  0  0  0  0 46  0  0
   -3.4301    1.8133    0.1247 H   0  0  0  0  0  0  0  0  0 47  0  0
   -1.9699   -0.3495    0.3842 C   0  0  0  0  0  0  0  0  0  9  0  0
   -2.3591    0.0540    1.3115 H   0  0  0  0  0  0  0  0  0 16  0  0
   -1.3799   -1.6145    0.3453 C   0  0  0  0  0  0  0  0  0 10  0  0
   -1.2495   -2.4286    1.4197 O   0  0  0  0  0  0  0  0  0 11  0  0
   -1.7628   -2.0078    2.6508 C   0  0  0  0  0  0  0  0  0 12  0  0
   -2.8495   -1.8449    2.6102 H   0  0  0  0  0  0  0  0  0 13  0  0
   -1.5454   -2.7993    3.3588 H   0  0  0  0  0  0  0  0  0 14  0  0
   -1.2881   -1.0802    2.9835 H   0  0  0  0  0  0  0  0  0 15  0  0
    1.5654   -5.1792   -0.9133 H   0  0  0  0  0  0  0  0  0 50  0  0
   -0.0161   -5.9095   -1.1819 H   0  0  0  0  0  0  0  0  0 51  0  0
    1.1398   -5.7842   -2.5260 H   0  0  0  0  0  0  0  0  0 52  0  0
  1  2  1  0
  2  3  1  0
  2  4  1  0
  2  5  1  0
  5  6  1  0
  6  7  4  0
  7  8  1  0
  7  9  4  0
  9 10  1  0
  9 11  4  0
 11 12  1  0
 12 13  1  0
 13 14  1  0
 14 15  2  0
 14 16  1  0
 16 17  1  0
 16 18  1  0
 18 19  1  0
 19 20  1  0
 20 21  2  0
 20 22  1  0
 22 23  4  0
 23 24  1  0
 23 25  4  0
 25 26  1  0
 25 27  4  0
 27 28  1  0
 27 29  4  0
 29 30  1  0
 29 31  4  0
 31 32  1  0
 32 33  2  0
 18 34  1  0
 18 35  1  0
 16 36  1  0
 13 37  1  0
 37 38  1  0
 37 39  1  0
 37 40  1  0
 12 41  1  0
 12 42  1  0
 11 43  4  0
 43 44  1  0
 43 45  4  0
 45 46  1  0
 46 47  1  0
 47 48  1  0
 47 49  1  0
 47 50  1  0
  1 51  1  0
  1 52  1  0
  1 53  1  0
 45  6  4  0
 32 19  1  0
 31 22  4  0
M  END
>  <sample_id>  (69)
train::CCOc1ccc(CN(C)C(=O)CCN2C(=O)c3ccccc3C2=O)cc1OC__gen0002

>  <partition>  (69)
BAT_EXTERNAL_CONFIRM

>  <method>  (69)
BA_seed193

>  <candidate>  (69)
primary

$$$$
train::CN(C)Cc1c(O)c(Cl)cc2c3c(c(=O)oc12)CCCC3__gen0000
     RDKit          3D

 39 41  0  0  0  0  0  0  0  0999 V2000
   -4.0865    0.9382    1.2459 C   0  0  0  0  0  0  0  0  0  0  0  0
   -3.0899    0.0018    0.8064 N   0  0  0  0  0  0  0  0  0  1  0  0
   -3.3107   -1.3158    1.3615 C   0  0  0  0  0  0  0  0  0  2  0  0
   -3.2599   -1.2631    2.4488 H   0  0  0  0  0  0  0  0  0  3  0  0
   -2.5182   -1.9913    1.0176 H   0  0  0  0  0  0  0  0  0  4  0  0
   -4.2807   -1.7388    1.0664 H   0  0  0  0  0  0  0  0  0  5  0  0
   -2.9512   -0.0352   -0.6367 C   0  0  0  0  0  0  0  0  0  6  0  0
   -1.6118   -0.5989   -1.0118 C   0  0  0  0  0  0  0  0  0  7  0  0
   -1.4894   -1.7952   -1.7059 C   0  0  0  0  0  0  0  0  0  8  0  0
   -2.6057   -2.4551   -2.0734 O   0  0  0  0  0  0  0  0  0 32  0  0
   -2.3378   -3.2677   -2.5462 H   0  0  0  0  0  0  0  0  0 33  0  0
   -0.2129   -2.2883   -2.0006 C   0  0  0  0  0  0  0  0  0  9  0  0
   -0.0944   -3.7905   -2.8625 Cl  0  0  0  0  0  0  0  0  0 31  0  0
    0.9272   -1.6260   -1.6227 C   0  0  0  0  0  0  0  0  0 10  0  0
    1.8880   -2.0411   -1.8685 H   0  0  0  0  0  0  0  0  0 30  0  0
    0.8389   -0.4160   -0.9281 C   0  0  0  0  0  0  0  0  0 11  0  0
   -0.4549    0.0798   -0.6586 C   0  0  0  0  0  0  0  0  0 12  0  0
   -0.6178    1.2507    0.0065 O   0  0  0  0  0  0  0  0  0 13  0  0
    0.4145    2.0400    0.4176 C   0  0  0  0  0  0  0  0  0 14  0  0
    0.1385    3.0730    0.9780 O   0  0  0  0  0  0  0  0  0 15  0  0
    1.7479    1.5376    0.1566 C   0  0  0  0  0  0  0  0  0 16  0  0
    1.9522    0.3497   -0.4818 C   0  0  0  0  0  0  0  0  0 17  0  0
    3.3940   -0.0463   -0.6226 C   0  0  0  0  0  0  0  0  0 18  0  0
    3.8804    0.6199   -1.3304 H   0  0  0  0  0  0  0  0  0 28  0  0
    3.4667   -1.0668   -1.0035 H   0  0  0  0  0  0  0  0  0 29  0  0
    4.0858    0.0380    0.7408 C   0  0  0  0  0  0  0  0  0 19  0  0
    3.6881   -0.7607    1.3766 H   0  0  0  0  0  0  0  0  0 26  0  0
    5.1539   -0.1377    0.6105 H   0  0  0  0  0  0  0  0  0 27  0  0
    3.8675    1.4056    1.4354 C   0  0  0  0  0  0  0  0  0 20  0  0
    3.4724    1.2398    2.4279 H   0  0  0  0  0  0  0  0  0 24  0  0
    4.8360    1.9158    1.5422 H   0  0  0  0  0  0  0  0  0 25  0  0
    2.9257    2.3178    0.6454 C   0  0  0  0  0  0  0  0  0 21  0  0
    3.4565    2.7467   -0.2180 H   0  0  0  0  0  0  0  0  0 22  0  0
    2.5783    3.1421    1.2722 H   0  0  0  0  0  0  0  0  0 23  0  0
   -3.0125    0.9967   -1.0062 H   0  0  0  0  0  0  0  0  0 34  0  0
   -3.7524   -0.6282   -1.1077 H   0  0  0  0  0  0  0  0  0 35  0  0
   -4.1129    0.9468    2.3396 H   0  0  0  0  0  0  0  0  0 36  0  0
   -5.0934    0.6912    0.8799 H   0  0  0  0  0  0  0  0  0 37  0  0
   -3.8196    1.9315    0.9093 H   0  0  0  0  0  0  0  0  0 38  0  0
  1  2  1  0
  2  3  1  0
  3  4  1  0
  3  5  1  0
  3  6  1  0
  2  7  1  0
  7  8  1  0
  8  9  4  0
  9 10  1  0
 10 11  1  0
  9 12  4  0
 12 13  1  0
 12 14  4  0
 14 15  1  0
 14 16  4  0
 16 17  4  0
 17 18  4  0
 18 19  4  0
 19 20  2  0
 19 21  4  0
 21 22  4  0
 22 23  1  0
 23 24  1  0
 23 25  1  0
 23 26  1  0
 26 27  1  0
 26 28  1  0
 26 29  1  0
 29 30  1  0
 29 31  1  0
 29 32  1  0
 32 33  1  0
 32 34  1  0
  7 35  1  0
  7 36  1  0
  1 37  1  0
  1 38  1  0
  1 39  1  0
 17  8  4  0
 32 21  1  0
 22 16  4  0
M  END
>  <sample_id>  (70)
train::CN(C)Cc1c(O)c(Cl)cc2c3c(c(=O)oc12)CCCC3__gen0000

>  <partition>  (70)
BAT_EXTERNAL_CONFIRM

>  <method>  (70)
BA_seed193

>  <candidate>  (70)
primary

$$$$
train::CN(C)Cc1c(O)c(Cl)cc2c3c(c(=O)oc12)CCCC3__gen0001
     RDKit          3D

 39 41  0  0  0  0  0  0  0  0999 V2000
    1.2731   -2.7789    2.3729 C   0  0  0  0  0  0  0  0  0  0  0  0
    0.0306   -3.3419    1.9228 N   0  0  0  0  0  0  0  0  0  1  0  0
   -0.5478   -4.2074    2.9422 C   0  0  0  0  0  0  0  0  0  2  0  0
   -1.4310   -4.7120    2.5268 H   0  0  0  0  0  0  0  0  0  3  0  0
    0.1767   -4.9575    3.2326 H   0  0  0  0  0  0  0  0  0  4  0  0
   -0.8521   -3.6473    3.8354 H   0  0  0  0  0  0  0  0  0  5  0  0
   -0.9027   -2.3322    1.4681 C   0  0  0  0  0  0  0  0  0  6  0  0
   -0.4325   -1.6593    0.2019 C   0  0  0  0  0  0  0  0  0  7  0  0
   -0.0469   -2.4674   -0.8742 C   0  0  0  0  0  0  0  0  0  8  0  0
   -0.0088   -3.7955   -0.7610 O   0  0  0  0  0  0  0  0  0 32  0  0
   -0.0980   -4.0467    0.1894 H   0  0  0  0  0  0  0  0  0 33  0  0
    0.3081   -1.8511   -2.0884 C   0  0  0  0  0  0  0  0  0  9  0  0
    0.7656   -2.8527   -3.4080 Cl  0  0  0  0  0  0  0  0  0 31  0  0
    0.3229   -0.4811   -2.2250 C   0  0  0  0  0  0  0  0  0 10  0  0
    0.6251   -0.0514   -3.1529 H   0  0  0  0  0  0  0  0  0 30  0  0
   -0.0230    0.3403   -1.1451 C   0  0  0  0  0  0  0  0  0 11  0  0
   -0.4089   -0.2882    0.0548 C   0  0  0  0  0  0  0  0  0 12  0  0
   -0.7267    0.4599    1.1518 O   0  0  0  0  0  0  0  0  0 13  0  0
   -0.7354    1.8194    1.1472 C   0  0  0  0  0  0  0  0  0 14  0  0
   -1.0601    2.3871    2.1572 O   0  0  0  0  0  0  0  0  0 15  0  0
   -0.3438    2.4820   -0.0722 C   0  0  0  0  0  0  0  0  0 16  0  0
   -0.0173    1.7770   -1.1980 C   0  0  0  0  0  0  0  0  0 17  0  0
    0.3734    2.4482   -2.4800 C   0  0  0  0  0  0  0  0  0 18  0  0
   -0.1681    1.9946   -3.3116 H   0  0  0  0  0  0  0  0  0 28  0  0
    1.4410    2.2939   -2.6349 H   0  0  0  0  0  0  0  0  0 29  0  0
    0.0851    3.9582   -2.4652 C   0  0  0  0  0  0  0  0  0 19  0  0
    0.5915    4.4395   -3.2911 H   0  0  0  0  0  0  0  0  0 26  0  0
   -0.9995    4.1196   -2.5812 H   0  0  0  0  0  0  0  0  0 27  0  0
    0.5334    4.5690   -1.1496 C   0  0  0  0  0  0  0  0  0 20  0  0
    0.4110    5.6477   -1.1649 H   0  0  0  0  0  0  0  0  0 24  0  0
    1.5875    4.3438   -0.9745 H   0  0  0  0  0  0  0  0  0 25  0  0
   -0.3153    3.9768   -0.0177 C   0  0  0  0  0  0  0  0  0 21  0  0
   -1.3466    4.3545   -0.1052 H   0  0  0  0  0  0  0  0  0 22  0  0
    0.0670    4.2807    0.9592 H   0  0  0  0  0  0  0  0  0 23  0  0
   -1.0842   -1.5693    2.2445 H   0  0  0  0  0  0  0  0  0 34  0  0
   -1.8658   -2.8131    1.2526 H   0  0  0  0  0  0  0  0  0 35  0  0
    1.9919   -3.5613    2.5926 H   0  0  0  0  0  0  0  0  0 36  0  0
    1.1441   -2.1382    3.2593 H   0  0  0  0  0  0  0  0  0 37  0  0
    1.6867   -2.1398    1.5896 H   0  0  0  0  0  0  0  0  0 38  0  0
  1  2  1  0
  2  3  1  0
  3  4  1  0
  3  5  1  0
  3  6  1  0
  2  7  1  0
  7  8  1  0
  8  9  4  0
  9 10  1  0
 10 11  1  0
  9 12  4  0
 12 13  1  0
 12 14  4  0
 14 15  1  0
 14 16  4  0
 16 17  4  0
 17 18  4  0
 18 19  4  0
 19 20  2  0
 19 21  4  0
 21 22  4  0
 22 23  1  0
 23 24  1  0
 23 25  1  0
 23 26  1  0
 26 27  1  0
 26 28  1  0
 26 29  1  0
 29 30  1  0
 29 31  1  0
 29 32  1  0
 32 33  1  0
 32 34  1  0
  7 35  1  0
  7 36  1  0
  1 37  1  0
  1 38  1  0
  1 39  1  0
 17  8  4  0
 32 21  1  0
 22 16  4  0
M  END
>  <sample_id>  (71)
train::CN(C)Cc1c(O)c(Cl)cc2c3c(c(=O)oc12)CCCC3__gen0001

>  <partition>  (71)
BAT_EXTERNAL_CONFIRM

>  <method>  (71)
BA_seed193

>  <candidate>  (71)
primary

$$$$
train::CN(C)Cc1c(O)c(Cl)cc2c3c(c(=O)oc12)CCCC3__gen0002
     RDKit          3D

 39 41  0  0  0  0  0  0  0  0999 V2000
    3.2279    1.2223   -0.0280 C   0  0  0  0  0  0  0  0  0  0  0  0
    2.7145    2.5797    0.0146 N   0  0  0  0  0  0  0  0  0  1  0  0
    2.8402    3.1643    1.3112 C   0  0  0  0  0  0  0  0  0  2  0  0
    2.6030    4.2320    1.2584 H   0  0  0  0  0  0  0  0  0  3  0  0
    2.1980    2.6873    2.0683 H   0  0  0  0  0  0  0  0  0  4  0  0
    3.8743    3.0804    1.6483 H   0  0  0  0  0  0  0  0  0  5  0  0
    1.4071    2.7436   -0.6229 C   0  0  0  0  0  0  0  0  0  6  0  0
    0.2685    1.9951    0.0447 C   0  0  0  0  0  0  0  0  0  7  0  0
   -0.4923    2.5835    1.0604 C   0  0  0  0  0  0  0  0  0  8  0  0
   -0.3013    3.8379    1.4692 O   0  0  0  0  0  0  0  0  0 32  0  0
    0.3819    4.2730    0.9308 H   0  0  0  0  0  0  0  0  0 33  0  0
   -1.5046    1.8354    1.6823 C   0  0  0  0  0  0  0  0  0  9  0  0
   -2.4246    2.5952    2.9315 Cl  0  0  0  0  0  0  0  0  0 31  0  0
   -1.7863    0.5448    1.3074 C   0  0  0  0  0  0  0  0  0 10  0  0
   -2.5825    0.0204    1.8026 H   0  0  0  0  0  0  0  0  0 30  0  0
   -1.0384   -0.0799    0.2964 C   0  0  0  0  0  0  0  0  0 11  0  0
   -0.0326    0.6842   -0.3304 C   0  0  0  0  0  0  0  0  0 12  0  0
    0.6811    0.1633   -1.3584 O   0  0  0  0  0  0  0  0  0 13  0  0
    0.4647   -1.0968   -1.8501 C   0  0  0  0  0  0  0  0  0 14  0  0
    1.1375   -1.4457   -2.7943 O   0  0  0  0  0  0  0  0  0 15  0  0
   -0.5609   -1.8985   -1.2163 C   0  0  0  0  0  0  0  0  0 16  0  0
   -1.2698   -1.4086   -0.1480 C   0  0  0  0  0  0  0  0  0 17  0  0
   -2.3049   -2.2540    0.5342 C   0  0  0  0  0  0  0  0  0 18  0  0
   -2.2035   -2.1393    1.6179 H   0  0  0  0  0  0  0  0  0 28  0  0
   -3.2913   -1.9020    0.2413 H   0  0  0  0  0  0  0  0  0 29  0  0
   -2.1741   -3.7387    0.1890 C   0  0  0  0  0  0  0  0  0 19  0  0
   -3.0493   -4.2777    0.5549 H   0  0  0  0  0  0  0  0  0 26  0  0
   -1.2936   -4.1604    0.6704 H   0  0  0  0  0  0  0  0  0 27  0  0
   -2.0465   -3.9107   -1.3200 C   0  0  0  0  0  0  0  0  0 20  0  0
   -2.8902   -3.4349   -1.8175 H   0  0  0  0  0  0  0  0  0 24  0  0
   -2.0507   -4.9647   -1.5954 H   0  0  0  0  0  0  0  0  0 25  0  0
   -0.7322   -3.2668   -1.7801 C   0  0  0  0  0  0  0  0  0 21  0  0
   -0.6975   -3.2065   -2.8711 H   0  0  0  0  0  0  0  0  0 22  0  0
    0.1127   -3.8856   -1.4736 H   0  0  0  0  0  0  0  0  0 23  0  0
    1.5083    2.3820   -1.6525 H   0  0  0  0  0  0  0  0  0 34  0  0
    1.1738    3.8139   -0.6388 H   0  0  0  0  0  0  0  0  0 35  0  0
    2.6722    0.5307    0.6129 H   0  0  0  0  0  0  0  0  0 36  0  0
    4.2663    1.2415    0.3034 H   0  0  0  0  0  0  0  0  0 37  0  0
    3.1955    0.8600   -1.0523 H   0  0  0  0  0  0  0  0  0 38  0  0
  1  2  1  0
  2  3  1  0
  3  4  1  0
  3  5  1  0
  3  6  1  0
  2  7  1  0
  7  8  1  0
  8  9  4  0
  9 10  1  0
 10 11  1  0
  9 12  4  0
 12 13  1  0
 12 14  4  0
 14 15  1  0
 14 16  4  0
 16 17  4  0
 17 18  4  0
 18 19  4  0
 19 20  2  0
 19 21  4  0
 21 22  4  0
 22 23  1  0
 23 24  1  0
 23 25  1  0
 23 26  1  0
 26 27  1  0
 26 28  1  0
 26 29  1  0
 29 30  1  0
 29 31  1  0
 29 32  1  0
 32 33  1  0
 32 34  1  0
  7 35  1  0
  7 36  1  0
  1 37  1  0
  1 38  1  0
  1 39  1  0
 17  8  4  0
 32 21  1  0
 22 16  4  0
M  END
>  <sample_id>  (72)
train::CN(C)Cc1c(O)c(Cl)cc2c3c(c(=O)oc12)CCCC3__gen0002

>  <partition>  (72)
BAT_EXTERNAL_CONFIRM

>  <method>  (72)
BA_seed193

>  <candidate>  (72)
primary

$$$$
train::COC(=O)c1c(NC(=O)CSc2nc3ccccc3c(=O)n2Cc2ccco2)sc(C)c1C__gen0000
     RDKit          3D

 54 57  0  0  0  0  0  0  0  0999 V2000
   -1.9945    1.6087   -1.4233 C   0  0  0  0  0  0  0  0  0  0  0  0
   -1.6933    0.8556   -2.1530 H   0  0  0  0  0  0  0  0  0  1  0  0
   -1.1952    2.3440   -1.3413 H   0  0  0  0  0  0  0  0  0  2  0  0
   -2.9289    2.0800   -1.7163 H   0  0  0  0  0  0  0  0  0  3  0  0
   -2.2326    1.0123   -0.1554 O   0  0  0  0  0  0  0  0  0  4  0  0
   -1.2643    0.2383    0.3286 C   0  0  0  0  0  0  0  0  0  5  0  0
   -0.2116    0.1017   -0.2941 O   0  0  0  0  0  0  0  0  0  6  0  0
   -1.5463   -0.3980    1.6092 C   0  0  0  0  0  0  0  0  0  7  0  0
   -0.5963   -1.2285    2.1535 C   0  0  0  0  0  0  0  0  0  8  0  0
    0.6166   -1.5249    1.6000 N   0  0  0  0  0  0  0  0  0  9  0  0
    1.5975   -2.2056    2.2469 C   0  0  0  0  0  0  0  0  0 10  0  0
    1.4377   -2.7451    3.3149 O   0  0  0  0  0  0  0  0  0 11  0  0
    2.8985   -2.2646    1.4519 C   0  0  0  0  0  0  0  0  0 12  0  0
    2.7860   -2.8971    0.5837 H   0  0  0  0  0  0  0  0  0 13  0  0
    3.6931   -2.6200    2.1078 H   0  0  0  0  0  0  0  0  0 14  0  0
    3.3781   -0.6136    0.8809 S   0  0  0  0  0  0  0  0  0 15  0  0
    2.6194   -0.6058   -0.7184 C   0  0  0  0  0  0  0  0  0 16  0  0
    2.1047   -1.6949   -1.1498 N   0  0  0  0  0  0  0  0  0 17  0  0
    1.4573   -1.6948   -2.3409 C   0  0  0  0  0  0  0  0  0 18  0  0
    0.8543   -2.8689   -2.8078 C   0  0  0  0  0  0  0  0  0 19  0  0
    0.9602   -3.7715   -2.2254 H   0  0  0  0  0  0  0  0  0 41  0  0
    0.1866   -2.8839   -4.0096 C   0  0  0  0  0  0  0  0  0 20  0  0
   -0.2769   -3.7824   -4.3672 H   0  0  0  0  0  0  0  0  0 40  0  0
    0.0743   -1.7208   -4.7702 C   0  0  0  0  0  0  0  0  0 21  0  0
   -0.4615   -1.7362   -5.7008 H   0  0  0  0  0  0  0  0  0 39  0  0
    0.6581   -0.5479   -4.3292 C   0  0  0  0  0  0  0  0  0 22  0  0
    0.6034    0.3669   -4.8931 H   0  0  0  0  0  0  0  0  0 38  0  0
    1.3758   -0.5303   -3.1235 C   0  0  0  0  0  0  0  0  0 23  0  0
    1.9661    0.6930   -2.6348 C   0  0  0  0  0  0  0  0  0 24  0  0
    1.9644    1.7620   -3.2159 O   0  0  0  0  0  0  0  0  0 25  0  0
    2.6124    0.5854   -1.3819 N   0  0  0  0  0  0  0  0  0 26  0  0
    3.1484    1.8018   -0.8227 C   0  0  0  0  0  0  0  0  0 27  0  0
    2.0450    2.5878   -0.1884 C   0  0  0  0  0  0  0  0  0 28  0  0
    1.2860    3.6012   -0.6836 C   0  0  0  0  0  0  0  0  0 29  0  0
    1.4061    4.0947   -1.6319 H   0  0  0  0  0  0  0  0  0 35  0  0
    0.3393    3.9089    0.3334 C   0  0  0  0  0  0  0  0  0 30  0  0
   -0.4211    4.6654    0.2954 H   0  0  0  0  0  0  0  0  0 34  0  0
    0.5822    3.0398    1.3370 C   0  0  0  0  0  0  0  0  0 31  0  0
    0.1083    2.8899    2.2875 H   0  0  0  0  0  0  0  0  0 33  0  0
    1.6109    2.2286    1.0381 O   0  0  0  0  0  0  0  0  0 32  0  0
    3.9279    1.5561   -0.0978 H   0  0  0  0  0  0  0  0  0 36  0  0
    3.5716    2.3836   -1.6513 H   0  0  0  0  0  0  0  0  0 37  0  0
    0.7515   -1.1155    0.6698 H   0  0  0  0  0  0  0  0  0 42  0  0
   -1.0662   -1.8803    3.6746 S   0  0  0  0  0  0  0  0  0 43  0  0
   -2.5777   -1.0118    3.5889 C   0  0  0  0  0  0  0  0  0 44  0  0
   -3.5539   -1.1602    4.6973 C   0  0  0  0  0  0  0  0  0 50  0  0
   -4.5355   -1.4643    4.3172 H   0  0  0  0  0  0  0  0  0 51  0  0
   -3.7004   -0.2082    5.2121 H   0  0  0  0  0  0  0  0  0 52  0  0
   -3.2134   -1.9071    5.4154 H   0  0  0  0  0  0  0  0  0 53  0  0
   -2.6992   -0.2778    2.4473 C   0  0  0  0  0  0  0  0  0 45  0  0
   -3.8862    0.5788    2.1217 C   0  0  0  0  0  0  0  0  0 46  0  0
   -4.3232    0.2833    1.1714 H   0  0  0  0  0  0  0  0  0 47  0  0
   -4.6343    0.4695    2.9132 H   0  0  0  0  0  0  0  0  0 48  0  0
   -3.6093    1.6227    2.0299 H   0  0  0  0  0  0  0  0  0 49  0  0
  1  2  1  0
  1  3  1  0
  1  4  1  0
  1  5  1  0
  5  6  1  0
  6  7  2  0
  6  8  1  0
  8  9  4  0
  9 10  1  0
 10 11  1  0
 11 12  2  0
 11 13  1  0
 13 14  1  0
 13 15  1  0
 13 16  1  0
 16 17  2  0
 17 18  4  0
 18 19  4  0
 19 20  4  0
 20 21  1  0
 20 22  4  0
 22 23  1  0
 22 24  4  0
 24 25  1  0
 24 26  4  0
 26 27  1  0
 26 28  4  0
 28 29  4  0
 29 30  1  0
 29 31  4  0
 31 32  1  0
 32 33  1  0
 33 34  4  0
 34 35  1  0
 34 36  4  0
 36 37  1  0
 36 38  4  0
 38 39  1  0
 38 40  4  0
 32 41  1  0
 32 42  1  0
 10 43  1  0
  9 44  4  0
 44 45  4  0
 45 46  1  0
 46 47  1  0
 46 48  1  0
 46 49  1  0
 45 50  4  0
 50 51  1  0
 51 52  1  0
 51 53  1  0
 51 54  1  0
 50  8  4  0
 31 17  4  0
 40 33  4  0
 28 19  4  0
M  CHG  2  16   1  30  -1
M  END
>  <sample_id>  (73)
train::COC(=O)c1c(NC(=O)CSc2nc3ccccc3c(=O)n2Cc2ccco2)sc(C)c1C__gen0000

>  <partition>  (73)
BAT_EXTERNAL_CONFIRM

>  <method>  (73)
BA_seed193

>  <candidate>  (73)
primary

$$$$
train::COC(=O)c1c(NC(=O)CSc2nc3ccccc3c(=O)n2Cc2ccco2)sc(C)c1C__gen0001
     RDKit          3D

 54 57  0  0  0  0  0  0  0  0999 V2000
    3.6997    3.7575   -0.9629 C   0  0  0  0  0  0  0  0  0  0  0  0
    4.6873    4.0515   -0.6140 H   0  0  0  0  0  0  0  0  0  1  0  0
    2.9192    4.2316   -0.3491 H   0  0  0  0  0  0  0  0  0  2  0  0
    3.5543    4.0594   -2.0035 H   0  0  0  0  0  0  0  0  0  3  0  0
    3.6304    2.3467   -0.8572 O   0  0  0  0  0  0  0  0  0  4  0  0
    2.4850    1.7901   -1.2400 C   0  0  0  0  0  0  0  0  0  5  0  0
    1.5481    2.4693   -1.6464 O   0  0  0  0  0  0  0  0  0  6  0  0
    2.4309    0.3393   -1.1061 C   0  0  0  0  0  0  0  0  0  7  0  0
    1.2974   -0.3361   -1.5010 C   0  0  0  0  0  0  0  0  0  8  0  0
    0.1580    0.2434   -2.0092 N   0  0  0  0  0  0  0  0  0  9  0  0
   -0.8933   -0.4933   -2.4633 C   0  0  0  0  0  0  0  0  0 10  0  0
   -0.8709   -1.7094   -2.5240 O   0  0  0  0  0  0  0  0  0 11  0  0
   -2.0630    0.3560   -2.8993 C   0  0  0  0  0  0  0  0  0 12  0  0
   -1.8052    0.9759   -3.7530 H   0  0  0  0  0  0  0  0  0 13  0  0
   -2.9227   -0.2754   -3.1143 H   0  0  0  0  0  0  0  0  0 14  0  0
   -2.5047    1.5088   -1.5577 S   0  0  0  0  0  0  0  0  0 15  0  0
   -2.8850    0.3190   -0.3142 C   0  0  0  0  0  0  0  0  0 16  0  0
   -3.0602   -0.8893   -0.7241 N   0  0  0  0  0  0  0  0  0 17  0  0
   -3.3607   -1.8509    0.1887 C   0  0  0  0  0  0  0  0  0 18  0  0
   -3.4956   -3.1792   -0.2306 C   0  0  0  0  0  0  0  0  0 19  0  0
   -3.3055   -3.4134   -1.2659 H   0  0  0  0  0  0  0  0  0 41  0  0
   -3.8538   -4.1534    0.6715 C   0  0  0  0  0  0  0  0  0 20  0  0
   -3.9611   -5.1713    0.3489 H   0  0  0  0  0  0  0  0  0 40  0  0
   -4.0765   -3.8273    2.0143 C   0  0  0  0  0  0  0  0  0 21  0  0
   -4.3868   -4.5960    2.7060 H   0  0  0  0  0  0  0  0  0 39  0  0
   -3.9449   -2.5276    2.4425 C   0  0  0  0  0  0  0  0  0 22  0  0
   -4.1163   -2.2335    3.4684 H   0  0  0  0  0  0  0  0  0 38  0  0
   -3.5713   -1.5308    1.5362 C   0  0  0  0  0  0  0  0  0 23  0  0
   -3.3854   -0.1536    1.9966 C   0  0  0  0  0  0  0  0  0 24  0  0
   -3.5102    0.2467    3.1228 O   0  0  0  0  0  0  0  0  0 25  0  0
   -2.9998    0.7431    0.9648 N   0  0  0  0  0  0  0  0  0 26  0  0
   -2.5742    2.0813    1.3596 C   0  0  0  0  0  0  0  0  0 27  0  0
   -1.1032    2.1478    1.4373 C   0  0  0  0  0  0  0  0  0 28  0  0
   -0.2360    3.2015    1.3861 C   0  0  0  0  0  0  0  0  0 29  0  0
   -0.4803    4.2303    1.1931 H   0  0  0  0  0  0  0  0  0 35  0  0
    1.0590    2.6729    1.6070 C   0  0  0  0  0  0  0  0  0 30  0  0
    1.9820    3.2216    1.6761 H   0  0  0  0  0  0  0  0  0 34  0  0
    0.8885    1.3402    1.7668 C   0  0  0  0  0  0  0  0  0 31  0  0
    1.5765    0.5321    1.9629 H   0  0  0  0  0  0  0  0  0 33  0  0
   -0.4011    1.0062    1.6686 O   0  0  0  0  0  0  0  0  0 32  0  0
   -3.0128    2.2445    2.3500 H   0  0  0  0  0  0  0  0  0 36  0  0
   -2.9821    2.8178    0.6598 H   0  0  0  0  0  0  0  0  0 37  0  0
    0.1828    1.2647   -1.9805 H   0  0  0  0  0  0  0  0  0 42  0  0
    1.3877   -2.0311   -1.2765 S   0  0  0  0  0  0  0  0  0 43  0  0
    3.0164   -1.8648   -0.6550 C   0  0  0  0  0  0  0  0  0 44  0  0
    3.7672   -3.0795   -0.2444 C   0  0  0  0  0  0  0  0  0 50  0  0
    4.0091   -3.0354    0.8299 H   0  0  0  0  0  0  0  0  0 51  0  0
    4.7105   -3.1457   -0.7714 H   0  0  0  0  0  0  0  0  0 52  0  0
    3.1782   -3.9599   -0.4411 H   0  0  0  0  0  0  0  0  0 53  0  0
    3.4364   -0.5555   -0.6225 C   0  0  0  0  0  0  0  0  0 45  0  0
    4.7804   -0.1346   -0.1463 C   0  0  0  0  0  0  0  0  0 46  0  0
    4.7010    0.6025    0.6464 H   0  0  0  0  0  0  0  0  0 47  0  0
    5.3326    0.3360   -0.9547 H   0  0  0  0  0  0  0  0  0 48  0  0
    5.3439   -0.9907    0.2239 H   0  0  0  0  0  0  0  0  0 49  0  0
  1  2  1  0
  1  3  1  0
  1  4  1  0
  1  5  1  0
  5  6  1  0
  6  7  2  0
  6  8  1  0
  8  9  4  0
  9 10  1  0
 10 11  1  0
 11 12  2  0
 11 13  1  0
 13 14  1  0
 13 15  1  0
 13 16  1  0
 16 17  2  0
 17 18  4  0
 18 19  4  0
 19 20  4  0
 20 21  1  0
 20 22  4  0
 22 23  1  0
 22 24  4  0
 24 25  1  0
 24 26  4  0
 26 27  1  0
 26 28  4  0
 28 29  4  0
 29 30  1  0
 29 31  4  0
 31 32  1  0
 32 33  1  0
 33 34  4  0
 34 35  1  0
 34 36  4  0
 36 37  1  0
 36 38  4  0
 38 39  1  0
 38 40  4  0
 32 41  1  0
 32 42  1  0
 10 43  1  0
  9 44  4  0
 44 45  4  0
 45 46  1  0
 46 47  1  0
 46 48  1  0
 46 49  1  0
 45 50  4  0
 50 51  1  0
 51 52  1  0
 51 53  1  0
 51 54  1  0
 50  8  4  0
 31 17  4  0
 40 33  4  0
 28 19  4  0
M  CHG  2  16   1  30  -1
M  END
>  <sample_id>  (74)
train::COC(=O)c1c(NC(=O)CSc2nc3ccccc3c(=O)n2Cc2ccco2)sc(C)c1C__gen0001

>  <partition>  (74)
BAT_EXTERNAL_CONFIRM

>  <method>  (74)
BA_seed193

>  <candidate>  (74)
primary

$$$$
train::COC(=O)c1c(NC(=O)CSc2nc3ccccc3c(=O)n2Cc2ccco2)sc(C)c1C__gen0002
     RDKit          3D

 54 57  0  0  0  0  0  0  0  0999 V2000
   -1.5730   -0.3923   -3.0920 C   0  0  0  0  0  0  0  0  0  0  0  0
   -0.4922   -0.5872   -3.0089 H   0  0  0  0  0  0  0  0  0  1  0  0
   -1.9879   -0.9651   -3.9281 H   0  0  0  0  0  0  0  0  0  2  0  0
   -1.7349    0.6666   -3.2265 H   0  0  0  0  0  0  0  0  0  3  0  0
   -2.2527   -0.8555   -1.9417 O   0  0  0  0  0  0  0  0  0  4  0  0
   -1.8642   -0.3566   -0.7617 C   0  0  0  0  0  0  0  0  0  5  0  0
   -0.9579    0.4563   -0.6911 O   0  0  0  0  0  0  0  0  0  6  0  0
   -2.5770   -0.8830    0.3912 C   0  0  0  0  0  0  0  0  0  7  0  0
   -2.1550   -0.5595    1.6673 C   0  0  0  0  0  0  0  0  0  8  0  0
   -1.0943    0.2455    1.9575 N   0  0  0  0  0  0  0  0  0  9  0  0
   -0.5809    0.3559    3.2177 C   0  0  0  0  0  0  0  0  0 10  0  0
   -1.1089   -0.1357    4.1900 O   0  0  0  0  0  0  0  0  0 11  0  0
    0.7532    1.0813    3.2547 C   0  0  0  0  0  0  0  0  0 12  0  0
    1.1243    1.1194    4.2808 H   0  0  0  0  0  0  0  0  0 13  0  0
    0.7001    2.0751    2.8084 H   0  0  0  0  0  0  0  0  0 14  0  0
    1.9554    0.1277    2.2750 S   0  0  0  0  0  0  0  0  0 15  0  0
    1.7328    0.8938    0.7006 C   0  0  0  0  0  0  0  0  0 16  0  0
    1.3342    2.1014    0.6804 N   0  0  0  0  0  0  0  0  0 17  0  0
    1.0956    2.6931   -0.5352 C   0  0  0  0  0  0  0  0  0 18  0  0
    0.6767    4.0270   -0.5846 C   0  0  0  0  0  0  0  0  0 19  0  0
    0.5323    4.5584    0.3433 H   0  0  0  0  0  0  0  0  0 41  0  0
    0.4034    4.6207   -1.7938 C   0  0  0  0  0  0  0  0  0 20  0  0
    0.0605    5.6462   -1.8354 H   0  0  0  0  0  0  0  0  0 40  0  0
    0.5754    3.9104   -2.9886 C   0  0  0  0  0  0  0  0  0 21  0  0
    0.3654    4.3994   -3.9307 H   0  0  0  0  0  0  0  0  0 39  0  0
    1.0000    2.6006   -2.9589 C   0  0  0  0  0  0  0  0  0 22  0  0
    1.1424    2.0374   -3.8695 H   0  0  0  0  0  0  0  0  0 38  0  0
    1.2776    1.9886   -1.7426 C   0  0  0  0  0  0  0  0  0 23  0  0
    1.7122    0.5986   -1.6841 C   0  0  0  0  0  0  0  0  0 24  0  0
    1.8369   -0.1435   -2.6391 O   0  0  0  0  0  0  0  0  0 25  0  0
    1.9585    0.1188   -0.3851 N   0  0  0  0  0  0  0  0  0 26  0  0
    2.4691   -1.2453   -0.2519 C   0  0  0  0  0  0  0  0  0 27  0  0
    3.8933   -1.2250    0.2268 C   0  0  0  0  0  0  0  0  0 28  0  0
    4.4577   -1.6637    1.3854 C   0  0  0  0  0  0  0  0  0 29  0  0
    3.9716   -2.1326    2.2106 H   0  0  0  0  0  0  0  0  0 35  0  0
    5.8437   -1.3698    1.2707 C   0  0  0  0  0  0  0  0  0 30  0  0
    6.6032   -1.5861    1.9900 H   0  0  0  0  0  0  0  0  0 34  0  0
    5.9967   -0.7918    0.0489 C   0  0  0  0  0  0  0  0  0 31  0  0
    6.8583   -0.4090   -0.4592 H   0  0  0  0  0  0  0  0  0 33  0  0
    4.8313   -0.7057   -0.6010 O   0  0  0  0  0  0  0  0  0 32  0  0
    1.8511   -1.8014    0.4608 H   0  0  0  0  0  0  0  0  0 36  0  0
    2.3972   -1.6879   -1.2474 H   0  0  0  0  0  0  0  0  0 37  0  0
   -0.6858    0.6899    1.1343 H   0  0  0  0  0  0  0  0  0 42  0  0
   -3.0659   -1.3462    2.8894 S   0  0  0  0  0  0  0  0  0 43  0  0
   -4.0497   -2.1199    1.6840 C   0  0  0  0  0  0  0  0  0 44  0  0
   -5.1572   -3.0132    2.1428 C   0  0  0  0  0  0  0  0  0 50  0  0
   -5.1740   -3.0419    3.2182 H   0  0  0  0  0  0  0  0  0 51  0  0
   -6.1208   -2.6555    1.7747 H   0  0  0  0  0  0  0  0  0 52  0  0
   -5.0088   -4.0197    1.7439 H   0  0  0  0  0  0  0  0  0 53  0  0
   -3.6886   -1.7813    0.4086 C   0  0  0  0  0  0  0  0  0 45  0  0
   -4.3881   -2.2864   -0.8210 C   0  0  0  0  0  0  0  0  0 46  0  0
   -5.2247   -2.9183   -0.5328 H   0  0  0  0  0  0  0  0  0 47  0  0
   -4.7618   -1.4540   -1.4146 H   0  0  0  0  0  0  0  0  0 48  0  0
   -3.7055   -2.8791   -1.4301 H   0  0  0  0  0  0  0  0  0 49  0  0
  1  2  1  0
  1  3  1  0
  1  4  1  0
  1  5  1  0
  5  6  1  0
  6  7  2  0
  6  8  1  0
  8  9  4  0
  9 10  1  0
 10 11  1  0
 11 12  2  0
 11 13  1  0
 13 14  1  0
 13 15  1  0
 13 16  1  0
 16 17  2  0
 17 18  4  0
 18 19  4  0
 19 20  4  0
 20 21  1  0
 20 22  4  0
 22 23  1  0
 22 24  4  0
 24 25  1  0
 24 26  4  0
 26 27  1  0
 26 28  4  0
 28 29  4  0
 29 30  1  0
 29 31  4  0
 31 32  1  0
 32 33  1  0
 33 34  4  0
 34 35  1  0
 34 36  4  0
 36 37  1  0
 36 38  4  0
 38 39  1  0
 38 40  4  0
 32 41  1  0
 32 42  1  0
 10 43  1  0
  9 44  4  0
 44 45  4  0
 45 46  1  0
 46 47  1  0
 46 48  1  0
 46 49  1  0
 45 50  4  0
 50 51  1  0
 51 52  1  0
 51 53  1  0
 51 54  1  0
 50  8  4  0
 31 17  4  0
 40 33  4  0
 28 19  4  0
M  CHG  2  16   1  30  -1
M  END
>  <sample_id>  (75)
train::COC(=O)c1c(NC(=O)CSc2nc3ccccc3c(=O)n2Cc2ccco2)sc(C)c1C__gen0002

>  <partition>  (75)
BAT_EXTERNAL_CONFIRM

>  <method>  (75)
BA_seed193

>  <candidate>  (75)
primary

$$$$
train::COc1cccc(C2CC(=O)N3CN(c4cccc(Cl)c4C)CSC3=C2C#N)c1OC__gen0000
     RDKit          3D

 53 56  0  0  0  0  0  0  0  0999 V2000
    1.7259    3.6206    3.4050 C   0  0  0  0  0  0  0  0  0  0  0  0
    0.9135    3.1503    3.9513 H   0  0  0  0  0  0  0  0  0  1  0  0
    2.2643    2.7727    2.4287 O   0  0  0  0  0  0  0  0  0  2  0  0
    1.4619    2.3775    1.3853 C   0  0  0  0  0  0  0  0  0  3  0  0
    0.1217    2.7213    1.2848 C   0  0  0  0  0  0  0  0  0  4  0  0
   -0.3380    3.3240    2.0624 H   0  0  0  0  0  0  0  0  0 50  0  0
   -0.6370    2.2981    0.2180 C   0  0  0  0  0  0  0  0  0  5  0  0
   -1.6708    2.5748    0.1470 H   0  0  0  0  0  0  0  0  0 49  0  0
   -0.0727    1.5270   -0.7777 C   0  0  0  0  0  0  0  0  0  6  0  0
   -0.6757    1.1909   -1.5937 H   0  0  0  0  0  0  0  0  0 48  0  0
    1.2659    1.1595   -0.6838 C   0  0  0  0  0  0  0  0  0  7  0  0
    1.9224    0.2461   -1.7072 C   0  0  1  0  0  0  0  0  0 14  0  0
    2.9559    0.5767   -1.8267 H   0  0  0  0  0  0  0  0  0 47  0  0
    1.9185   -1.1589   -1.1324 C   0  0  0  0  0  0  0  0  0 15  0  0
    2.9242   -1.5624   -0.2362 C   0  0  0  0  0  0  0  0  0 45  0  0
    3.7452   -1.9312    0.4777 N   0  0  0  0  0  0  0  0  0 46  0  0
    0.8727   -1.9799   -1.3755 C   0  0  0  0  0  0  0  0  0 16  0  0
   -0.1464   -1.6252   -2.2265 N   0  0  0  0  0  0  0  0  0 17  0  0
   -0.0666   -0.5333   -3.0835 C   0  0  0  0  0  0  0  0  0 18  0  0
   -0.9911   -0.2616   -3.8116 O   0  0  0  0  0  0  0  0  0 19  0  0
    1.2620    0.1804   -3.0918 C   0  0  0  0  0  0  0  0  0 20  0  0
    1.0852    1.1846   -3.4856 H   0  0  0  0  0  0  0  0  0 21  0  0
    1.9137   -0.3379   -3.7841 H   0  0  0  0  0  0  0  0  0 22  0  0
   -1.4372   -2.3030   -2.1829 C   0  0  0  0  0  0  0  0  0 23  0  0
   -1.4429   -3.1774   -2.8326 H   0  0  0  0  0  0  0  0  0 43  0  0
   -2.1857   -1.5832   -2.5539 H   0  0  0  0  0  0  0  0  0 44  0  0
   -1.7596   -2.6637   -0.8338 N   0  0  0  0  0  0  0  0  0 24  0  0
   -1.9581   -1.6357    0.0976 C   0  0  0  0  0  0  0  0  0 29  0  0
   -1.0660   -1.4139    1.1339 C   0  0  0  0  0  0  0  0  0 30  0  0
   -0.1901   -2.0251    1.2313 H   0  0  0  0  0  0  0  0  0 42  0  0
   -1.2811   -0.4001    2.0503 C   0  0  0  0  0  0  0  0  0 31  0  0
   -0.5783   -0.2362    2.8502 H   0  0  0  0  0  0  0  0  0 41  0  0
   -2.3932    0.4168    1.9484 C   0  0  0  0  0  0  0  0  0 32  0  0
   -2.5692    1.1979    2.6672 H   0  0  0  0  0  0  0  0  0 40  0  0
   -3.2831    0.1709    0.9413 C   0  0  0  0  0  0  0  0  0 33  0  0
   -4.6537    1.2142    0.7625 Cl  0  0  0  0  0  0  0  0  0 39  0  0
   -3.1023   -0.8413   -0.0029 C   0  0  0  0  0  0  0  0  0 34  0  0
   -4.1282   -1.0660   -1.0633 C   0  0  0  0  0  0  0  0  0 35  0  0
   -3.8919   -0.5138   -1.9804 H   0  0  0  0  0  0  0  0  0 36  0  0
   -5.1151   -0.7524   -0.7249 H   0  0  0  0  0  0  0  0  0 37  0  0
   -4.1956   -2.1185   -1.3170 H   0  0  0  0  0  0  0  0  0 38  0  0
   -1.0209   -3.8114   -0.4413 C   0  0  0  0  0  0  0  0  0 25  0  0
   -1.2741   -4.6697   -1.0690 H   0  0  0  0  0  0  0  0  0 26  0  0
   -1.1785   -4.0574    0.5993 H   0  0  0  0  0  0  0  0  0 27  0  0
    0.8635   -3.6089   -0.6505 S   0  0  0  0  0  0  0  0  0 28  0  0
    2.0468    1.5700    0.3866 C   0  0  0  0  0  0  0  0  0  8  0  0
    3.3614    1.1988    0.3485 O   0  0  0  0  0  0  0  0  0  9  0  0
    4.0393    0.8641    1.5367 C   0  0  0  0  0  0  0  0  0 10  0  0
    3.4812    0.1318    2.1221 H   0  0  0  0  0  0  0  0  0 11  0  0
    4.9939    0.4420    1.2180 H   0  0  0  0  0  0  0  0  0 12  0  0
    4.2335    1.7430    2.1614 H   0  0  0  0  0  0  0  0  0 13  0  0
    1.3820    4.5674    2.9683 H   0  0  0  0  0  0  0  0  0 51  0  0
    2.5485    3.8466    4.0849 H   0  0  0  0  0  0  0  0  0 52  0  0
  1  2  1  0
  1  3  1  0
  3  4  1  0
  4  5  4  0
  5  6  1  0
  5  7  4  0
  7  8  1  0
  7  9  4  0
  9 10  1  0
  9 11  4  0
 11 12  1  0
 12 13  1  6
 12 14  1  0
 14 15  1  0
 15 16  3  0
 14 17  2  0
 17 18  1  0
 18 19  1  0
 19 20  2  0
 19 21  1  0
 21 22  1  0
 21 23  1  0
 18 24  1  0
 24 25  1  0
 24 26  1  0
 24 27  1  0
 27 28  1  0
 28 29  4  0
 29 30  1  0
 29 31  4  0
 31 32  1  0
 31 33  4  0
 33 34  1  0
 33 35  4  0
 35 36  1  0
 35 37  4  0
 37 38  1  0
 38 39  1  0
 38 40  1  0
 38 41  1  0
 27 42  1  0
 42 43  1  0
 42 44  1  0
 42 45  1  0
 11 46  4  0
 46 47  1  0
 47 48  1  0
 48 49  1  0
 48 50  1  0
 48 51  1  0
  1 52  1  0
  1 53  1  0
 46  4  4  0
 21 12  1  0
 37 28  4  0
 45 17  1  0
M  END
>  <sample_id>  (76)
train::COc1cccc(C2CC(=O)N3CN(c4cccc(Cl)c4C)CSC3=C2C#N)c1OC__gen0000

>  <partition>  (76)
BAT_EXTERNAL_CONFIRM

>  <method>  (76)
BA_seed193

>  <candidate>  (76)
primary

$$$$
train::COc1cccc(C2CC(=O)N3CN(c4cccc(Cl)c4C)CSC3=C2C#N)c1OC__gen0001
     RDKit          3D

 53 56  0  0  0  0  0  0  0  0999 V2000
    5.6044   -1.2487    1.5727 C   0  0  0  0  0  0  0  0  0  0  0  0
    6.3033   -1.1640    0.7386 H   0  0  0  0  0  0  0  0  0  1  0  0
    4.2926   -0.9236    1.1764 O   0  0  0  0  0  0  0  0  0  2  0  0
    3.6722   -1.7147    0.2478 C   0  0  0  0  0  0  0  0  0  3  0  0
    4.3043   -2.7750   -0.3982 C   0  0  0  0  0  0  0  0  0  4  0  0
    5.3331   -3.0060   -0.1795 H   0  0  0  0  0  0  0  0  0 50  0  0
    3.6255   -3.5253   -1.3277 C   0  0  0  0  0  0  0  0  0  5  0  0
    4.1320   -4.3403   -1.8237 H   0  0  0  0  0  0  0  0  0 49  0  0
    2.2970   -3.2539   -1.6089 C   0  0  0  0  0  0  0  0  0  6  0  0
    1.7744   -3.8462   -2.3484 H   0  0  0  0  0  0  0  0  0 48  0  0
    1.6437   -2.2136   -0.9971 C   0  0  0  0  0  0  0  0  0  7  0  0
    0.1938   -1.9262   -1.3024 C   0  0  1  0  0  0  0  0  0 14  0  0
   -0.1498   -2.6781   -2.0124 H   0  0  0  0  0  0  0  0  0 47  0  0
   -0.6391   -1.9847   -0.0496 C   0  0  0  0  0  0  0  0  0 15  0  0
   -0.1695   -2.8142    0.9814 C   0  0  0  0  0  0  0  0  0 45  0  0
    0.2076   -3.5024    1.8243 N   0  0  0  0  0  0  0  0  0 46  0  0
   -1.7923   -1.3159    0.0291 C   0  0  0  0  0  0  0  0  0 16  0  0
   -2.2305   -0.4930   -0.9817 N   0  0  0  0  0  0  0  0  0 17  0  0
   -1.4146   -0.0901   -2.0189 C   0  0  0  0  0  0  0  0  0 18  0  0
   -1.8570    0.5863   -2.9221 O   0  0  0  0  0  0  0  0  0 19  0  0
    0.0250   -0.5351   -1.9421 C   0  0  0  0  0  0  0  0  0 20  0  0
    0.4351   -0.5185   -2.9494 H   0  0  0  0  0  0  0  0  0 21  0  0
    0.5379    0.2024   -1.3377 H   0  0  0  0  0  0  0  0  0 22  0  0
   -3.5481    0.1763   -0.8968 C   0  0  0  0  0  0  0  0  0 23  0  0
   -3.5912    0.8978   -1.7141 H   0  0  0  0  0  0  0  0  0 43  0  0
   -4.3460   -0.5618   -1.0048 H   0  0  0  0  0  0  0  0  0 44  0  0
   -3.6529    0.8402    0.3650 N   0  0  0  0  0  0  0  0  0 24  0  0
   -2.6858    1.8333    0.6377 C   0  0  0  0  0  0  0  0  0 29  0  0
   -1.6969    1.6451    1.5990 C   0  0  0  0  0  0  0  0  0 30  0  0
   -1.6238    0.7066    2.1246 H   0  0  0  0  0  0  0  0  0 42  0  0
   -0.7799    2.6329    1.8722 C   0  0  0  0  0  0  0  0  0 31  0  0
   -0.0261    2.4830    2.6251 H   0  0  0  0  0  0  0  0  0 41  0  0
   -0.8197    3.8358    1.1790 C   0  0  0  0  0  0  0  0  0 32  0  0
   -0.0955    4.6151    1.3933 H   0  0  0  0  0  0  0  0  0 40  0  0
   -1.8111    4.0228    0.2357 C   0  0  0  0  0  0  0  0  0 33  0  0
   -1.8375    5.5480   -0.5930 Cl  0  0  0  0  0  0  0  0  0 39  0  0
   -2.7704    3.0497   -0.0489 C   0  0  0  0  0  0  0  0  0 34  0  0
   -3.8562    3.3224   -1.0390 C   0  0  0  0  0  0  0  0  0 35  0  0
   -4.7759    2.8498   -0.7246 H   0  0  0  0  0  0  0  0  0 36  0  0
   -4.0256    4.3992   -1.1170 H   0  0  0  0  0  0  0  0  0 37  0  0
   -3.5732    2.9441   -2.0239 H   0  0  0  0  0  0  0  0  0 38  0  0
   -3.9562   -0.1004    1.4048 C   0  0  0  0  0  0  0  0  0 25  0  0
   -4.9510   -0.5005    1.2266 H   0  0  0  0  0  0  0  0  0 26  0  0
   -3.9012    0.3685    2.3747 H   0  0  0  0  0  0  0  0  0 27  0  0
   -2.8132   -1.5796    1.4557 S   0  0  0  0  0  0  0  0  0 28  0  0
    2.3330   -1.4013   -0.0582 C   0  0  0  0  0  0  0  0  0  8  0  0
    1.6269   -0.3970    0.5275 O   0  0  0  0  0  0  0  0  0  9  0  0
    2.2640    0.8100    0.8224 C   0  0  0  0  0  0  0  0  0 10  0  0
    2.9334    1.1107    0.0049 H   0  0  0  0  0  0  0  0  0 11  0  0
    1.4740    1.5587    0.9155 H   0  0  0  0  0  0  0  0  0 12  0  0
    2.8350    0.7675    1.7584 H   0  0  0  0  0  0  0  0  0 13  0  0
    5.6662   -2.2647    1.9838 H   0  0  0  0  0  0  0  0  0 51  0  0
    5.8758   -0.5313    2.3439 H   0  0  0  0  0  0  0  0  0 52  0  0
  1  2  1  0
  1  3  1  0
  3  4  1  0
  4  5  4  0
  5  6  1  0
  5  7  4  0
  7  8  1  0
  7  9  4  0
  9 10  1  0
  9 11  4  0
 11 12  1  0
 12 13  1  6
 12 14  1  0
 14 15  1  0
 15 16  3  0
 14 17  2  0
 17 18  1  0
 18 19  1  0
 19 20  2  0
 19 21  1  0
 21 22  1  0
 21 23  1  0
 18 24  1  0
 24 25  1  0
 24 26  1  0
 24 27  1  0
 27 28  1  0
 28 29  4  0
 29 30  1  0
 29 31  4  0
 31 32  1  0
 31 33  4  0
 33 34  1  0
 33 35  4  0
 35 36  1  0
 35 37  4  0
 37 38  1  0
 38 39  1  0
 38 40  1  0
 38 41  1  0
 27 42  1  0
 42 43  1  0
 42 44  1  0
 42 45  1  0
 11 46  4  0
 46 47  1  0
 47 48  1  0
 48 49  1  0
 48 50  1  0
 48 51  1  0
  1 52  1  0
  1 53  1  0
 46  4  4  0
 21 12  1  0
 37 28  4  0
 45 17  1  0
M  END
>  <sample_id>  (77)
train::COc1cccc(C2CC(=O)N3CN(c4cccc(Cl)c4C)CSC3=C2C#N)c1OC__gen0001

>  <partition>  (77)
BAT_EXTERNAL_CONFIRM

>  <method>  (77)
BA_seed193

>  <candidate>  (77)
primary

$$$$
train::COc1cccc(C2CC(=O)N3CN(c4cccc(Cl)c4C)CSC3=C2C#N)c1OC__gen0002
     RDKit          3D

 53 56  0  0  0  0  0  0  0  0999 V2000
   -3.4971    2.1098    1.7848 C   0  0  0  0  0  0  0  0  0  0  0  0
   -4.2955    1.4963    1.3664 H   0  0  0  0  0  0  0  0  0  1  0  0
   -2.2373    1.5515    1.5274 O   0  0  0  0  0  0  0  0  0  2  0  0
   -1.9363    0.3016    2.0299 C   0  0  0  0  0  0  0  0  0  3  0  0
   -2.8440   -0.4286    2.7896 C   0  0  0  0  0  0  0  0  0  4  0  0
   -3.8158   -0.0137    3.0391 H   0  0  0  0  0  0  0  0  0 50  0  0
   -2.5130   -1.6820    3.2619 C   0  0  0  0  0  0  0  0  0  5  0  0
   -3.2176   -2.2339    3.8690 H   0  0  0  0  0  0  0  0  0 49  0  0
   -1.2726   -2.2253    2.9623 C   0  0  0  0  0  0  0  0  0  6  0  0
   -1.0237   -3.2191    3.3166 H   0  0  0  0  0  0  0  0  0 48  0  0
   -0.3601   -1.5243    2.1895 C   0  0  0  0  0  0  0  0  0  7  0  0
    0.9433   -2.2086    1.8383 C   0  0  1  0  0  0  0  0  0 14  0  0
    1.0266   -3.1072    2.4751 H   0  0  0  0  0  0  0  0  0 47  0  0
    0.8893   -2.7397    0.4264 C   0  0  0  0  0  0  0  0  0 15  0  0
    0.0687   -3.8482    0.1601 C   0  0  0  0  0  0  0  0  0 45  0  0
   -0.6013   -4.7568   -0.0515 N   0  0  0  0  0  0  0  0  0 46  0  0
    1.6068   -2.1532   -0.5703 C   0  0  0  0  0  0  0  0  0 16  0  0
    2.2982   -0.9990   -0.3718 N   0  0  0  0  0  0  0  0  0 17  0  0
    2.5972   -0.4936    0.8792 C   0  0  0  0  0  0  0  0  0 18  0  0
    3.1934    0.5548    1.0038 O   0  0  0  0  0  0  0  0  0 19  0  0
    2.2228   -1.3731    2.0512 C   0  0  0  0  0  0  0  0  0 20  0  0
    3.0662   -2.0243    2.2300 H   0  0  0  0  0  0  0  0  0 21  0  0
    2.1105   -0.7323    2.9305 H   0  0  0  0  0  0  0  0  0 22  0  0
    2.6765   -0.1666   -1.5194 C   0  0  0  0  0  0  0  0  0 23  0  0
    3.6227   -0.5158   -1.9466 H   0  0  0  0  0  0  0  0  0 43  0  0
    2.8068    0.8513   -1.1535 H   0  0  0  0  0  0  0  0  0 44  0  0
    1.6743   -0.2076   -2.5447 N   0  0  0  0  0  0  0  0  0 24  0  0
    0.4686    0.4821   -2.2888 C   0  0  0  0  0  0  0  0  0 29  0  0
   -0.6829   -0.1773   -1.8522 C   0  0  0  0  0  0  0  0  0 30  0  0
   -0.6636   -1.2429   -1.6952 H   0  0  0  0  0  0  0  0  0 42  0  0
   -1.8514    0.5237   -1.6190 C   0  0  0  0  0  0  0  0  0 31  0  0
   -2.7240   -0.0033   -1.2719 H   0  0  0  0  0  0  0  0  0 41  0  0
   -1.9031    1.8872   -1.8234 C   0  0  0  0  0  0  0  0  0 32  0  0
   -2.8120    2.4496   -1.6378 H   0  0  0  0  0  0  0  0  0 40  0  0
   -0.7569    2.5340   -2.2638 C   0  0  0  0  0  0  0  0  0 33  0  0
   -0.8149    4.2443   -2.5161 Cl  0  0  0  0  0  0  0  0  0 39  0  0
    0.4328    1.8645   -2.5235 C   0  0  0  0  0  0  0  0  0 34  0  0
    1.6188    2.5897   -3.0470 C   0  0  0  0  0  0  0  0  0 35  0  0
    2.1956    3.0283   -2.2333 H   0  0  0  0  0  0  0  0  0 36  0  0
    2.2717    1.9144   -3.5875 H   0  0  0  0  0  0  0  0  0 37  0  0
    1.3122    3.3929   -3.7105 H   0  0  0  0  0  0  0  0  0 38  0  0
    1.6257   -1.4455   -3.2460 C   0  0  0  0  0  0  0  0  0 25  0  0
    2.5062   -1.5162   -3.8911 H   0  0  0  0  0  0  0  0  0 26  0  0
    0.7120   -1.5221   -3.8285 H   0  0  0  0  0  0  0  0  0 27  0  0
    1.6938   -2.9466   -2.1425 S   0  0  0  0  0  0  0  0  0 28  0  0
   -0.6764   -0.2464    1.7312 C   0  0  0  0  0  0  0  0  0  8  0  0
    0.2352    0.3944    0.9445 O   0  0  0  0  0  0  0  0  0  9  0  0
    0.3930    1.7921    1.0775 C   0  0  0  0  0  0  0  0  0 10  0  0
   -0.3842    2.3313    0.5346 H   0  0  0  0  0  0  0  0  0 11  0  0
    1.3786    2.0269    0.6482 H   0  0  0  0  0  0  0  0  0 12  0  0
    0.3936    2.0921    2.1273 H   0  0  0  0  0  0  0  0  0 13  0  0
   -3.6710    2.2576    2.8547 H   0  0  0  0  0  0  0  0  0 51  0  0
   -3.4860    3.0826    1.2868 H   0  0  0  0  0  0  0  0  0 52  0  0
  1  2  1  0
  1  3  1  0
  3  4  1  0
  4  5  4  0
  5  6  1  0
  5  7  4  0
  7  8  1  0
  7  9  4  0
  9 10  1  0
  9 11  4  0
 11 12  1  0
 12 13  1  1
 12 14  1  0
 14 15  1  0
 15 16  3  0
 14 17  2  0
 17 18  1  0
 18 19  1  0
 19 20  2  0
 19 21  1  0
 21 22  1  0
 21 23  1  0
 18 24  1  0
 24 25  1  0
 24 26  1  0
 24 27  1  0
 27 28  1  0
 28 29  4  0
 29 30  1  0
 29 31  4  0
 31 32  1  0
 31 33  4  0
 33 34  1  0
 33 35  4  0
 35 36  1  0
 35 37  4  0
 37 38  1  0
 38 39  1  0
 38 40  1  0
 38 41  1  0
 27 42  1  0
 42 43  1  0
 42 44  1  0
 42 45  1  0
 11 46  4  0
 46 47  1  0
 47 48  1  0
 48 49  1  0
 48 50  1  0
 48 51  1  0
  1 52  1  0
  1 53  1  0
 46  4  4  0
 21 12  1  0
 37 28  4  0
 45 17  1  0
M  END
>  <sample_id>  (78)
train::COc1cccc(C2CC(=O)N3CN(c4cccc(Cl)c4C)CSC3=C2C#N)c1OC__gen0002

>  <partition>  (78)
BAT_EXTERNAL_CONFIRM

>  <method>  (78)
BA_seed193

>  <candidate>  (78)
primary

$$$$
train::COc1ccc(Cn2c(=O)[nH]c3cc(C(=O)N4CCN(c5ccccc5F)CC4)ccc3c2=O)cc1__gen0000
     RDKit          3D

 61 65  0  0  0  0  0  0  0  0999 V2000
   -3.3539   -6.9532   -3.6972 C   0  0  0  0  0  0  0  0  0  0  0  0
   -4.4170   -7.2023   -3.7057 H   0  0  0  0  0  0  0  0  0  1  0  0
   -3.2879   -5.6091   -4.1160 O   0  0  0  0  0  0  0  0  0  2  0  0
   -2.0750   -5.0089   -4.2322 C   0  0  0  0  0  0  0  0  0  3  0  0
   -0.8580   -5.6218   -3.9194 C   0  0  0  0  0  0  0  0  0  4  0  0
   -0.8215   -6.6304   -3.5468 H   0  0  0  0  0  0  0  0  0 58  0  0
    0.3250   -4.9227   -4.0571 C   0  0  0  0  0  0  0  0  0  5  0  0
    1.2629   -5.3863   -3.8038 H   0  0  0  0  0  0  0  0  0 57  0  0
    0.3225   -3.6033   -4.5217 C   0  0  0  0  0  0  0  0  0  6  0  0
    1.6132   -2.8534   -4.6692 C   0  0  0  0  0  0  0  0  0 11  0  0
    1.8561   -2.0064   -3.4913 N   0  0  0  0  0  0  0  0  0 12  0  0
    2.4852   -2.6315   -2.4099 C   0  0  0  0  0  0  0  0  0 13  0  0
    2.8594   -3.7777   -2.4465 O   0  0  0  0  0  0  0  0  0 14  0  0
    2.6534   -1.8531   -1.3009 N   0  0  0  0  0  0  0  0  0 15  0  0
    3.1490   -2.2856   -0.5193 H   0  0  0  0  0  0  0  0  0 54  0  0
    2.2860   -0.5288   -1.1955 C   0  0  0  0  0  0  0  0  0 16  0  0
    2.5029    0.1917   -0.0303 C   0  0  0  0  0  0  0  0  0 17  0  0
    3.0034   -0.2486    0.8134 H   0  0  0  0  0  0  0  0  0 53  0  0
    2.0935    1.5218    0.0383 C   0  0  0  0  0  0  0  0  0 18  0  0
    2.4352    2.2844    1.2817 C   0  0  0  0  0  0  0  0  0 26  0  0
    3.5935    2.3955    1.6547 O   0  0  0  0  0  0  0  0  0 27  0  0
    1.4097    2.8470    1.9544 N   0  0  0  0  0  0  0  0  0 28  0  0
    1.6753    3.5957    3.1744 C   0  0  0  0  0  0  0  0  0 29  0  0
    2.7414    3.7369    3.2580 H   0  0  0  0  0  0  0  0  0 30  0  0
    1.1566    4.5510    3.1119 H   0  0  0  0  0  0  0  0  0 52  0  0
    1.1380    2.7804    4.3725 C   0  0  0  0  0  0  0  0  0 31  0  0
    1.6622    1.8275    4.4306 H   0  0  0  0  0  0  0  0  0 50  0  0
    1.3093    3.3297    5.2952 H   0  0  0  0  0  0  0  0  0 51  0  0
   -0.2701    2.5199    4.2032 N   0  0  0  0  0  0  0  0  0 32  0  0
   -1.2252    3.3715    4.7236 C   0  0  0  0  0  0  0  0  0 33  0  0
   -1.1835    3.7686    6.0695 C   0  0  0  0  0  0  0  0  0 34  0  0
   -0.2253    3.2600    6.8754 F   0  0  0  0  0  0  0  0  0 43  0  0
   -2.1296    4.5816    6.6361 C   0  0  0  0  0  0  0  0  0 35  0  0
   -2.0358    4.8393    7.6759 H   0  0  0  0  0  0  0  0  0 42  0  0
   -3.1544    5.0817    5.8680 C   0  0  0  0  0  0  0  0  0 36  0  0
   -3.9011    5.7405    6.3007 H   0  0  0  0  0  0  0  0  0 41  0  0
   -3.2441    4.7023    4.5446 C   0  0  0  0  0  0  0  0  0 37  0  0
   -4.0540    5.0681    3.9333 H   0  0  0  0  0  0  0  0  0 40  0  0
   -2.3025    3.8709    3.9768 C   0  0  0  0  0  0  0  0  0 38  0  0
   -2.3909    3.6165    2.9336 H   0  0  0  0  0  0  0  0  0 39  0  0
   -0.5157    1.7901    2.9908 C   0  0  0  0  0  0  0  0  0 44  0  0
   -1.5734    1.5696    2.8675 H   0  0  0  0  0  0  0  0  0 45  0  0
    0.0234    0.8347    3.0140 H   0  0  0  0  0  0  0  0  0 49  0  0
   -0.0015    2.5605    1.7576 C   0  0  0  0  0  0  0  0  0 46  0  0
   -0.1332    1.9611    0.8485 H   0  0  0  0  0  0  0  0  0 47  0  0
   -0.5480    3.5063    1.6571 H   0  0  0  0  0  0  0  0  0 48  0  0
    1.4893    2.1313   -1.0626 C   0  0  0  0  0  0  0  0  0 19  0  0
    1.2171    3.1708   -1.0181 H   0  0  0  0  0  0  0  0  0 25  0  0
    1.2805    1.4095   -2.2134 C   0  0  0  0  0  0  0  0  0 20  0  0
    0.8216    1.8535   -3.0853 H   0  0  0  0  0  0  0  0  0 24  0  0
    1.6623    0.0624   -2.2948 C   0  0  0  0  0  0  0  0  0 21  0  0
    1.4120   -0.6978   -3.5090 C   0  0  0  0  0  0  0  0  0 22  0  0
    0.8734   -0.2459   -4.5033 O   0  0  0  0  0  0  0  0  0 23  0  0
    1.5731   -2.1747   -5.5168 H   0  0  0  0  0  0  0  0  0 55  0  0
    2.4617   -3.5279   -4.7549 H   0  0  0  0  0  0  0  0  0 56  0  0
   -0.8874   -2.9982   -4.8188 C   0  0  0  0  0  0  0  0  0  7  0  0
   -0.8931   -1.9814   -5.1766 H   0  0  0  0  0  0  0  0  0 10  0  0
   -2.0705   -3.6926   -4.6804 C   0  0  0  0  0  0  0  0  0  8  0  0
   -3.0142   -3.2282   -4.9066 H   0  0  0  0  0  0  0  0  0  9  0  0
   -2.9700   -7.0592   -2.6817 H   0  0  0  0  0  0  0  0  0 59  0  0
   -2.8115   -7.6030   -4.3761 H   0  0  0  0  0  0  0  0  0 60  0  0
  1  2  1  0
  1  3  1  0
  3  4  1  0
  4  5  4  0
  5  6  1  0
  5  7  4  0
  7  8  1  0
  7  9  4  0
  9 10  1  0
 10 11  1  0
 11 12  4  0
 12 13  2  0
 12 14  4  0
 14 15  1  0
 14 16  4  0
 16 17  4  0
 17 18  1  0
 17 19  4  0
 19 20  1  0
 20 21  2  0
 20 22  1  0
 22 23  1  0
 23 24  1  0
 23 25  1  0
 23 26  1  0
 26 27  1  0
 26 28  1  0
 26 29  1  0
 29 30  1  0
 30 31  4  0
 31 32  1  0
 31 33  4  0
 33 34  1  0
 33 35  4  0
 35 36  1  0
 35 37  4  0
 37 38  1  0
 37 39  4  0
 39 40  1  0
 29 41  1  0
 41 42  1  0
 41 43  1  0
 41 44  1  0
 44 45  1  0
 44 46  1  0
 19 47  4  0
 47 48  1  0
 47 49  4  0
 49 50  1  0
 49 51  4  0
 51 52  4  0
 52 53  2  0
 10 54  1  0
 10 55  1  0
  9 56  4  0
 56 57  1  0
 56 58  4  0
 58 59  1  0
  1 60  1  0
  1 61  1  0
 58  4  4  0
 52 11  4  0
 51 16  4  0
 44 22  1  0
 39 30  4  0
M  END
>  <sample_id>  (79)
train::COc1ccc(Cn2c(=O)[nH]c3cc(C(=O)N4CCN(c5ccccc5F)CC4)ccc3c2=O)cc1__gen0000

>  <partition>  (79)
BAT_EXTERNAL_CONFIRM

>  <method>  (79)
BA_seed193

>  <candidate>  (79)
primary

$$$$
train::COc1ccc(Cn2c(=O)[nH]c3cc(C(=O)N4CCN(c5ccccc5F)CC4)ccc3c2=O)cc1__gen0001
     RDKit          3D

 61 65  0  0  0  0  0  0  0  0999 V2000
   -8.0670    2.2869    5.4329 C   0  0  0  0  0  0  0  0  0  0  0  0
   -8.1707    1.2557    5.1061 H   0  0  0  0  0  0  0  0  0  1  0  0
   -6.7793    2.7865    5.2570 O   0  0  0  0  0  0  0  0  0  2  0  0
   -6.2542    2.8625    3.9892 C   0  0  0  0  0  0  0  0  0  3  0  0
   -6.9230    2.4565    2.8403 C   0  0  0  0  0  0  0  0  0  4  0  0
   -7.9232    2.0447    2.8957 H   0  0  0  0  0  0  0  0  0 58  0  0
   -6.3091    2.5723    1.6083 C   0  0  0  0  0  0  0  0  0  5  0  0
   -6.8264    2.2528    0.7222 H   0  0  0  0  0  0  0  0  0 57  0  0
   -5.0298    3.1025    1.5041 C   0  0  0  0  0  0  0  0  0  6  0  0
   -4.3615    3.2142    0.1563 C   0  0  0  0  0  0  0  0  0 11  0  0
   -3.4779    2.0716   -0.0705 N   0  0  0  0  0  0  0  0  0 12  0  0
   -4.0587    0.9305   -0.5847 C   0  0  0  0  0  0  0  0  0 13  0  0
   -5.2289    0.8722   -0.8889 O   0  0  0  0  0  0  0  0  0 14  0  0
   -3.2159   -0.1358   -0.7724 N   0  0  0  0  0  0  0  0  0 15  0  0
   -3.6338   -0.9770   -1.1417 H   0  0  0  0  0  0  0  0  0 54  0  0
   -1.8770   -0.1435   -0.4558 C   0  0  0  0  0  0  0  0  0 16  0  0
   -1.0960   -1.2749   -0.6607 C   0  0  0  0  0  0  0  0  0 17  0  0
   -1.5176   -2.1742   -1.0667 H   0  0  0  0  0  0  0  0  0 53  0  0
    0.2528   -1.2359   -0.3340 C   0  0  0  0  0  0  0  0  0 18  0  0
    1.0545   -2.5106   -0.4768 C   0  0  0  0  0  0  0  0  0 26  0  0
    0.7375   -3.5170    0.1301 O   0  0  0  0  0  0  0  0  0 27  0  0
    2.0916   -2.4862   -1.3140 N   0  0  0  0  0  0  0  0  0 28  0  0
    2.5529   -1.3781   -2.1286 C   0  0  0  0  0  0  0  0  0 29  0  0
    1.8796   -0.5169   -2.0128 H   0  0  0  0  0  0  0  0  0 30  0  0
    2.5358   -1.6754   -3.1799 H   0  0  0  0  0  0  0  0  0 52  0  0
    3.9855   -1.0217   -1.7392 C   0  0  0  0  0  0  0  0  0 31  0  0
    4.3149   -0.1841   -2.3752 H   0  0  0  0  0  0  0  0  0 50  0  0
    4.0047   -0.6840   -0.6884 H   0  0  0  0  0  0  0  0  0 51  0  0
    4.8266   -2.1742   -1.9336 N   0  0  0  0  0  0  0  0  0 32  0  0
    6.1924   -2.0091   -2.1730 C   0  0  0  0  0  0  0  0  0 33  0  0
    6.6154   -1.2079   -3.2448 C   0  0  0  0  0  0  0  0  0 34  0  0
    5.7119   -0.5421   -4.0098 F   0  0  0  0  0  0  0  0  0 43  0  0
    7.9375   -1.0790   -3.5828 C   0  0  0  0  0  0  0  0  0 35  0  0
    8.2026   -0.4355   -4.4095 H   0  0  0  0  0  0  0  0  0 42  0  0
    8.9054   -1.7509   -2.8525 C   0  0  0  0  0  0  0  0  0 36  0  0
    9.9499   -1.6455   -3.1179 H   0  0  0  0  0  0  0  0  0 41  0  0
    8.5155   -2.5624   -1.8123 C   0  0  0  0  0  0  0  0  0 37  0  0
    9.2465   -3.0988   -1.2342 H   0  0  0  0  0  0  0  0  0 40  0  0
    7.1827   -2.6908   -1.4719 C   0  0  0  0  0  0  0  0  0 38  0  0
    6.9181   -3.3152   -0.6445 H   0  0  0  0  0  0  0  0  0 39  0  0
    4.3889   -3.2851   -1.1071 C   0  0  0  0  0  0  0  0  0 44  0  0
    4.4353   -3.0443   -0.0411 H   0  0  0  0  0  0  0  0  0 45  0  0
    5.0171   -4.1626   -1.2992 H   0  0  0  0  0  0  0  0  0 49  0  0
    2.9466   -3.6490   -1.4701 C   0  0  0  0  0  0  0  0  0 46  0  0
    2.5645   -4.4339   -0.8232 H   0  0  0  0  0  0  0  0  0 47  0  0
    2.9057   -3.9838   -2.5188 H   0  0  0  0  0  0  0  0  0 48  0  0
    0.8239   -0.1006    0.2270 C   0  0  0  0  0  0  0  0  0 19  0  0
    1.8524   -0.0921    0.5172 H   0  0  0  0  0  0  0  0  0 25  0  0
    0.0349    1.0204    0.4307 C   0  0  0  0  0  0  0  0  0 20  0  0
    0.4448    1.9284    0.8651 H   0  0  0  0  0  0  0  0  0 24  0  0
   -1.3131    1.0130    0.0873 C   0  0  0  0  0  0  0  0  0 21  0  0
   -2.1472    2.2036    0.3117 C   0  0  0  0  0  0  0  0  0 22  0  0
   -1.7083    3.2481    0.7443 O   0  0  0  0  0  0  0  0  0 23  0  0
   -3.7498    4.1130    0.1066 H   0  0  0  0  0  0  0  0  0 55  0  0
   -5.1083    3.2180   -0.6443 H   0  0  0  0  0  0  0  0  0 56  0  0
   -4.3648    3.5051    2.6595 C   0  0  0  0  0  0  0  0  0  7  0  0
   -3.3717    3.9038    2.5828 H   0  0  0  0  0  0  0  0  0 10  0  0
   -4.9733    3.3839    3.8870 C   0  0  0  0  0  0  0  0  0  8  0  0
   -4.4682    3.6857    4.7830 H   0  0  0  0  0  0  0  0  0  9  0  0
   -8.2635    2.3360    6.5165 H   0  0  0  0  0  0  0  0  0 59  0  0
   -8.8106    2.9102    4.9198 H   0  0  0  0  0  0  0  0  0 60  0  0
  1  2  1  0
  1  3  1  0
  3  4  1  0
  4  5  4  0
  5  6  1  0
  5  7  4  0
  7  8  1  0
  7  9  4  0
  9 10  1  0
 10 11  1  0
 11 12  4  0
 12 13  2  0
 12 14  4  0
 14 15  1  0
 14 16  4  0
 16 17  4  0
 17 18  1  0
 17 19  4  0
 19 20  1  0
 20 21  2  0
 20 22  1  0
 22 23  1  0
 23 24  1  0
 23 25  1  0
 23 26  1  0
 26 27  1  0
 26 28  1  0
 26 29  1  0
 29 30  1  0
 30 31  4  0
 31 32  1  0
 31 33  4  0
 33 34  1  0
 33 35  4  0
 35 36  1  0
 35 37  4  0
 37 38  1  0
 37 39  4  0
 39 40  1  0
 29 41  1  0
 41 42  1  0
 41 43  1  0
 41 44  1  0
 44 45  1  0
 44 46  1  0
 19 47  4  0
 47 48  1  0
 47 49  4  0
 49 50  1  0
 49 51  4  0
 51 52  4  0
 52 53  2  0
 10 54  1  0
 10 55  1  0
  9 56  4  0
 56 57  1  0
 56 58  4  0
 58 59  1  0
  1 60  1  0
  1 61  1  0
 58  4  4  0
 52 11  4  0
 51 16  4  0
 44 22  1  0
 39 30  4  0
M  END
>  <sample_id>  (80)
train::COc1ccc(Cn2c(=O)[nH]c3cc(C(=O)N4CCN(c5ccccc5F)CC4)ccc3c2=O)cc1__gen0001

>  <partition>  (80)
BAT_EXTERNAL_CONFIRM

>  <method>  (80)
BA_seed193

>  <candidate>  (80)
primary

$$$$
train::COc1ccc(Cn2c(=O)[nH]c3cc(C(=O)N4CCN(c5ccccc5F)CC4)ccc3c2=O)cc1__gen0002
     RDKit          3D

 61 65  0  0  0  0  0  0  0  0999 V2000
    0.2536    7.1061   -7.0432 C   0  0  0  0  0  0  0  0  0  0  0  0
    0.3312    8.0899   -6.5775 H   0  0  0  0  0  0  0  0  0  1  0  0
   -0.8423    6.3909   -6.5312 O   0  0  0  0  0  0  0  0  0  2  0  0
   -0.8610    6.0953   -5.1856 C   0  0  0  0  0  0  0  0  0  3  0  0
   -1.9747    5.3948   -4.7256 C   0  0  0  0  0  0  0  0  0  4  0  0
   -2.7317    5.1219   -5.4415 H   0  0  0  0  0  0  0  0  0 58  0  0
   -2.0714    5.0448   -3.3990 C   0  0  0  0  0  0  0  0  0  5  0  0
   -2.9347    4.4866   -3.0524 H   0  0  0  0  0  0  0  0  0 57  0  0
   -1.0718    5.3910   -2.4909 C   0  0  0  0  0  0  0  0  0  6  0  0
   -1.1739    4.9886   -1.0564 C   0  0  0  0  0  0  0  0  0 11  0  0
   -0.7771    3.5866   -0.8919 N   0  0  0  0  0  0  0  0  0 12  0  0
    0.5802    3.3364   -0.8507 C   0  0  0  0  0  0  0  0  0 13  0  0
    1.4103    4.2157   -0.8823 O   0  0  0  0  0  0  0  0  0 14  0  0
    0.9377    2.0272   -0.7737 N   0  0  0  0  0  0  0  0  0 15  0  0
    1.9367    1.8251   -0.7407 H   0  0  0  0  0  0  0  0  0 54  0  0
    0.0503    0.9629   -0.6834 C   0  0  0  0  0  0  0  0  0 16  0  0
    0.4983   -0.3482   -0.5821 C   0  0  0  0  0  0  0  0  0 17  0  0
    1.5592   -0.5600   -0.6129 H   0  0  0  0  0  0  0  0  0 53  0  0
   -0.4274   -1.3805   -0.4750 C   0  0  0  0  0  0  0  0  0 18  0  0
    0.0325   -2.8037   -0.4608 C   0  0  0  0  0  0  0  0  0 26  0  0
   -0.1935   -3.5520   -1.3918 O   0  0  0  0  0  0  0  0  0 27  0  0
    0.7354   -3.2226    0.6122 N   0  0  0  0  0  0  0  0  0 28  0  0
    0.9374   -2.4838    1.8288 C   0  0  0  0  0  0  0  0  0 29  0  0
    0.4939   -1.4878    1.7237 H   0  0  0  0  0  0  0  0  0 30  0  0
    1.9943   -2.3806    2.0413 H   0  0  0  0  0  0  0  0  0 52  0  0
    0.2368   -3.2139    2.9799 C   0  0  0  0  0  0  0  0  0 31  0  0
    0.4206   -2.7032    3.9275 H   0  0  0  0  0  0  0  0  0 50  0  0
   -0.8431   -3.2278    2.7888 H   0  0  0  0  0  0  0  0  0 51  0  0
    0.7314   -4.5727    3.0634 N   0  0  0  0  0  0  0  0  0 32  0  0
    0.8993   -5.2016    4.2834 C   0  0  0  0  0  0  0  0  0 33  0  0
    0.3157   -6.4239    4.6168 C   0  0  0  0  0  0  0  0  0 34  0  0
   -0.5633   -7.0116    3.7705 F   0  0  0  0  0  0  0  0  0 43  0  0
    0.5368   -7.0453    5.8222 C   0  0  0  0  0  0  0  0  0 35  0  0
    0.0794   -7.9955    6.0172 H   0  0  0  0  0  0  0  0  0 42  0  0
    1.3874   -6.4733    6.7486 C   0  0  0  0  0  0  0  0  0 36  0  0
    1.6228   -6.9767    7.6769 H   0  0  0  0  0  0  0  0  0 41  0  0
    2.0019   -5.2668    6.4506 C   0  0  0  0  0  0  0  0  0 37  0  0
    2.6749   -4.7981    7.1605 H   0  0  0  0  0  0  0  0  0 40  0  0
    1.7440   -4.6472    5.2357 C   0  0  0  0  0  0  0  0  0 38  0  0
    2.2445   -3.7044    5.0211 H   0  0  0  0  0  0  0  0  0 39  0  0
    0.4684   -5.3052    1.8498 C   0  0  0  0  0  0  0  0  0 44  0  0
   -0.6036   -5.3621    1.6428 H   0  0  0  0  0  0  0  0  0 45  0  0
    0.8689   -6.3138    1.9438 H   0  0  0  0  0  0  0  0  0 49  0  0
    1.1830   -4.5915    0.6949 C   0  0  0  0  0  0  0  0  0 46  0  0
    0.9464   -5.0792   -0.2599 H   0  0  0  0  0  0  0  0  0 47  0  0
    2.2658   -4.6208    0.8575 H   0  0  0  0  0  0  0  0  0 48  0  0
   -1.7925   -1.1040   -0.4816 C   0  0  0  0  0  0  0  0  0 19  0  0
   -2.4915   -1.9169   -0.4179 H   0  0  0  0  0  0  0  0  0 25  0  0
   -2.2338    0.1994   -0.5804 C   0  0  0  0  0  0  0  0  0 20  0  0
   -3.2823    0.4423   -0.5908 H   0  0  0  0  0  0  0  0  0 24  0  0
   -1.3105    1.2441   -0.6805 C   0  0  0  0  0  0  0  0  0 21  0  0
   -1.7765    2.6265   -0.8029 C   0  0  0  0  0  0  0  0  0 22  0  0
   -2.9485    2.9547   -0.8073 O   0  0  0  0  0  0  0  0  0 23  0  0
   -0.5184    5.5867   -0.4250 H   0  0  0  0  0  0  0  0  0 55  0  0
   -2.2114    5.0523   -0.7115 H   0  0  0  0  0  0  0  0  0 56  0  0
    0.0303    6.0849   -2.9526 C   0  0  0  0  0  0  0  0  0  7  0  0
    0.8317    6.3416   -2.2688 H   0  0  0  0  0  0  0  0  0 10  0  0
    0.1457    6.4410   -4.2888 C   0  0  0  0  0  0  0  0  0  8  0  0
    1.0262    6.9827   -4.6169 H   0  0  0  0  0  0  0  0  0  9  0  0
    0.0352    7.2121   -8.1046 H   0  0  0  0  0  0  0  0  0 59  0  0
    1.1873    6.5430   -6.9199 H   0  0  0  0  0  0  0  0  0 60  0  0
  1  2  1  0
  1  3  1  0
  3  4  1  0
  4  5  4  0
  5  6  1  0
  5  7  4  0
  7  8  1  0
  7  9  4  0
  9 10  1  0
 10 11  1  0
 11 12  4  0
 12 13  2  0
 12 14  4  0
 14 15  1  0
 14 16  4  0
 16 17  4  0
 17 18  1  0
 17 19  4  0
 19 20  1  0
 20 21  2  0
 20 22  1  0
 22 23  1  0
 23 24  1  0
 23 25  1  0
 23 26  1  0
 26 27  1  0
 26 28  1  0
 26 29  1  0
 29 30  1  0
 30 31  4  0
 31 32  1  0
 31 33  4  0
 33 34  1  0
 33 35  4  0
 35 36  1  0
 35 37  4  0
 37 38  1  0
 37 39  4  0
 39 40  1  0
 29 41  1  0
 41 42  1  0
 41 43  1  0
 41 44  1  0
 44 45  1  0
 44 46  1  0
 19 47  4  0
 47 48  1  0
 47 49  4  0
 49 50  1  0
 49 51  4  0
 51 52  4  0
 52 53  2  0
 10 54  1  0
 10 55  1  0
  9 56  4  0
 56 57  1  0
 56 58  4  0
 58 59  1  0
  1 60  1  0
  1 61  1  0
 58  4  4  0
 52 11  4  0
 51 16  4  0
 44 22  1  0
 39 30  4  0
M  END
>  <sample_id>  (81)
train::COc1ccc(Cn2c(=O)[nH]c3cc(C(=O)N4CCN(c5ccccc5F)CC4)ccc3c2=O)cc1__gen0002

>  <partition>  (81)
BAT_EXTERNAL_CONFIRM

>  <method>  (81)
BA_seed193

>  <candidate>  (81)
primary

$$$$
train::CCC1SC2=NC(C)=C(C(=O)OCCOC)C(c3ccc(C(=O)OC)cc3)N2C1=O__gen0000
     RDKit          3D

 54 56  0  0  0  0  0  0  0  0999 V2000
    1.7412    4.4602   -3.8684 C   0  0  0  0  0  0  0  0  0  0  0  0
    1.3890    4.2000   -4.8626 H   0  0  0  0  0  0  0  0  0  1  0  0
    0.5681    4.7575   -2.9492 C   0  0  0  0  0  0  0  0  0  2  0  0
    0.9249    5.1224   -1.9857 H   0  0  0  0  0  0  0  0  0  3  0  0
   -0.0529    5.5443   -3.3834 H   0  0  0  0  0  0  0  0  0  4  0  0
   -0.3125    3.5197   -2.7019 C   0  0  1  0  0  0  0  0  0  5  0  0
   -0.5949    3.0856   -3.6636 H   0  0  0  0  0  0  0  0  0 51  0  0
    0.3986    2.4624   -1.8750 C   0  0  0  0  0  0  0  0  0  6  0  0
    1.3520    1.8219   -2.2458 O   0  0  0  0  0  0  0  0  0  7  0  0
   -0.1570    2.3552   -0.6185 N   0  0  0  0  0  0  0  0  0  8  0  0
   -1.2248    3.1609   -0.3463 C   0  0  0  0  0  0  0  0  0  9  0  0
   -1.7397    3.3035    0.8204 N   0  0  0  0  0  0  0  0  0 10  0  0
   -1.2161    2.6309    1.8683 C   0  0  0  0  0  0  0  0  0 11  0  0
   -1.8546    2.9269    3.1815 C   0  0  0  0  0  0  0  0  0 46  0  0
   -2.3459    2.0400    3.5645 H   0  0  0  0  0  0  0  0  0 47  0  0
   -2.5810    3.7257    3.0443 H   0  0  0  0  0  0  0  0  0 48  0  0
   -1.0986    3.2153    3.9064 H   0  0  0  0  0  0  0  0  0 49  0  0
   -0.2083    1.7018    1.7106 C   0  0  0  0  0  0  0  0  0 12  0  0
    0.3451    0.9213    2.8207 C   0  0  0  0  0  0  0  0  0 13  0  0
   -0.0445    0.9338    3.9564 O   0  0  0  0  0  0  0  0  0 14  0  0
    1.3983    0.1914    2.4055 O   0  0  0  0  0  0  0  0  0 15  0  0
    1.9089   -0.7766    3.3135 C   0  0  0  0  0  0  0  0  0 16  0  0
    1.7415   -2.1712    2.7130 C   0  0  0  0  0  0  0  0  0 17  0  0
    0.3889   -2.5185    2.6861 O   0  0  0  0  0  0  0  0  0 18  0  0
    0.1473   -3.7752    2.1427 C   0  0  0  0  0  0  0  0  0 19  0  0
   -0.9336   -3.9178    2.1423 H   0  0  0  0  0  0  0  0  0 20  0  0
    0.6081   -4.5738    2.7484 H   0  0  0  0  0  0  0  0  0 21  0  0
    0.5277   -3.8496    1.1165 H   0  0  0  0  0  0  0  0  0 22  0  0
    2.1519   -2.1853    1.6901 H   0  0  0  0  0  0  0  0  0 23  0  0
    2.3135   -2.8871    3.3272 H   0  0  0  0  0  0  0  0  0 24  0  0
    2.9712   -0.5675    3.4637 H   0  0  0  0  0  0  0  0  0 25  0  0
    1.3575   -0.6994    4.2559 H   0  0  0  0  0  0  0  0  0 26  0  0
    0.3473    1.3875    0.3465 C   0  0  1  0  0  0  0  0  0 27  0  0
   -0.1021   -0.0013   -0.1117 C   0  0  0  0  0  0  0  0  0 28  0  0
   -1.3974   -0.4476    0.1317 C   0  0  0  0  0  0  0  0  0 29  0  0
   -2.1017    0.2066    0.6232 H   0  0  0  0  0  0  0  0  0 44  0  0
   -1.7756   -1.7114   -0.2725 C   0  0  0  0  0  0  0  0  0 30  0  0
   -2.7822   -2.0658   -0.0900 H   0  0  0  0  0  0  0  0  0 43  0  0
   -0.8789   -2.5420   -0.9261 C   0  0  0  0  0  0  0  0  0 31  0  0
   -1.3332   -3.8748   -1.3291 C   0  0  0  0  0  0  0  0  0 36  0  0
   -2.4041   -4.3710   -1.0511 O   0  0  0  0  0  0  0  0  0 37  0  0
   -0.4218   -4.5409   -2.0600 O   0  0  0  0  0  0  0  0  0 38  0  0
   -0.8156   -5.8507   -2.4935 C   0  0  0  0  0  0  0  0  0 39  0  0
   -1.7475   -5.8064   -3.0522 H   0  0  0  0  0  0  0  0  0 40  0  0
   -0.9618   -6.5077   -1.6285 H   0  0  0  0  0  0  0  0  0 41  0  0
   -0.0145   -6.2121   -3.1273 H   0  0  0  0  0  0  0  0  0 42  0  0
    0.4192   -2.0969   -1.1653 C   0  0  0  0  0  0  0  0  0 32  0  0
    1.1273   -2.7435   -1.6643 H   0  0  0  0  0  0  0  0  0 35  0  0
    0.8116   -0.8448   -0.7335 C   0  0  0  0  0  0  0  0  0 33  0  0
    1.8186   -0.5026   -0.9286 H   0  0  0  0  0  0  0  0  0 34  0  0
    1.4370    1.4308    0.3457 H   0  0  0  0  0  0  0  0  0 45  0  0
   -1.7944    3.9825   -1.7735 S   0  0  0  0  0  0  0  0  0 50  0  0
    2.3818    5.3325   -3.9368 H   0  0  0  0  0  0  0  0  0 52  0  0
    2.3189    3.6211   -3.4808 H   0  0  0  0  0  0  0  0  0 53  0  0
  1  2  1  0
  1  3  1  0
  3  4  1  0
  3  5  1  0
  3  6  1  0
  6  7  1  6
  6  8  1  0
  8  9  2  0
  8 10  1  0
 10 11  1  0
 11 12  2  0
 12 13  1  0
 13 14  1  0
 14 15  1  0
 14 16  1  0
 14 17  1  0
 13 18  2  0
 18 19  1  0
 19 20  2  0
 19 21  1  0
 21 22  1  0
 22 23  1  0
 23 24  1  0
 24 25  1  0
 25 26  1  0
 25 27  1  0
 25 28  1  0
 23 29  1  0
 23 30  1  0
 22 31  1  0
 22 32  1  0
 18 33  1  0
 33 34  1  0
 34 35  4  0
 35 36  1  0
 35 37  4  0
 37 38  1  0
 37 39  4  0
 39 40  1  0
 40 41  2  0
 40 42  1  0
 42 43  1  0
 43 44  1  0
 43 45  1  0
 43 46  1  0
 39 47  4  0
 47 48  1  0
 47 49  4  0
 49 50  1  0
 33 51  1  6
 11 52  1  0
  1 53  1  0
  1 54  1  0
 52  6  1  0
 33 10  1  0
 49 34  4  0
M  END
>  <sample_id>  (82)
train::CCC1SC2=NC(C)=C(C(=O)OCCOC)C(c3ccc(C(=O)OC)cc3)N2C1=O__gen0000

>  <partition>  (82)
BAT_EXTERNAL_CONFIRM

>  <method>  (82)
BA_seed193

>  <candidate>  (82)
primary

$$$$
train::CCC1SC2=NC(C)=C(C(=O)OCCOC)C(c3ccc(C(=O)OC)cc3)N2C1=O__gen0001
     RDKit          3D

 54 56  0  0  0  0  0  0  0  0999 V2000
    3.6064   -0.0780   -5.6525 C   0  0  0  0  0  0  0  0  0  0  0  0
    3.4622   -0.4842   -6.6522 H   0  0  0  0  0  0  0  0  0  1  0  0
    2.3767   -0.3914   -4.8115 C   0  0  0  0  0  0  0  0  0  2  0  0
    2.2437   -1.4707   -4.7587 H   0  0  0  0  0  0  0  0  0  3  0  0
    1.4832    0.0648   -5.2641 H   0  0  0  0  0  0  0  0  0  4  0  0
    2.5203    0.1212   -3.3733 C   0  0  2  0  0  0  0  0  0  5  0  0
    3.4636   -0.2217   -2.9493 H   0  0  0  0  0  0  0  0  0 51  0  0
    1.3680   -0.3421   -2.5114 C   0  0  0  0  0  0  0  0  0  6  0  0
    1.1000   -1.4968   -2.3044 O   0  0  0  0  0  0  0  0  0  7  0  0
    0.6577    0.7237   -2.0187 N   0  0  0  0  0  0  0  0  0  8  0  0
    1.0800    1.9762   -2.3524 C   0  0  0  0  0  0  0  0  0  9  0  0
    0.4747    3.0713   -2.0413 N   0  0  0  0  0  0  0  0  0 10  0  0
   -0.6816    3.0203   -1.3517 C   0  0  0  0  0  0  0  0  0 11  0  0
   -1.3547    4.3322   -1.1508 C   0  0  0  0  0  0  0  0  0 46  0  0
   -0.7464    5.1076   -1.6154 H   0  0  0  0  0  0  0  0  0 47  0  0
   -1.4842    4.5380   -0.0978 H   0  0  0  0  0  0  0  0  0 48  0  0
   -2.3510    4.3226   -1.5998 H   0  0  0  0  0  0  0  0  0 49  0  0
   -1.2061    1.8220   -0.8767 C   0  0  0  0  0  0  0  0  0 12  0  0
   -2.4644    1.7670   -0.1358 C   0  0  0  0  0  0  0  0  0 13  0  0
   -3.1047    2.7313    0.1932 O   0  0  0  0  0  0  0  0  0 14  0  0
   -2.8572    0.5112    0.1211 O   0  0  0  0  0  0  0  0  0 15  0  0
   -4.0953    0.3824    0.8275 C   0  0  0  0  0  0  0  0  0 16  0  0
   -3.9065    0.3053    2.3531 C   0  0  0  0  0  0  0  0  0 17  0  0
   -3.7036   -0.9888    2.8497 O   0  0  0  0  0  0  0  0  0 18  0  0
   -2.4395   -1.5303    2.5822 C   0  0  0  0  0  0  0  0  0 19  0  0
   -2.3010   -1.6601    1.5007 H   0  0  0  0  0  0  0  0  0 20  0  0
   -1.6692   -0.8534    2.9701 H   0  0  0  0  0  0  0  0  0 21  0  0
   -2.3867   -2.4903    3.0727 H   0  0  0  0  0  0  0  0  0 22  0  0
   -4.8144    0.6360    2.8424 H   0  0  0  0  0  0  0  0  0 23  0  0
   -3.0794    0.9720    2.6198 H   0  0  0  0  0  0  0  0  0 24  0  0
   -4.7116    1.2580    0.5988 H   0  0  0  0  0  0  0  0  0 25  0  0
   -4.5629   -0.5321    0.4538 H   0  0  0  0  0  0  0  0  0 26  0  0
   -0.4818    0.5193   -1.1141 C   0  0  2  0  0  0  0  0  0 27  0  0
    0.0572   -0.0849    0.1553 C   0  0  0  0  0  0  0  0  0 28  0  0
    0.0088   -1.4642    0.3636 C   0  0  0  0  0  0  0  0  0 29  0  0
   -0.4450   -2.0941   -0.3826 H   0  0  0  0  0  0  0  0  0 44  0  0
    0.5631   -2.0307    1.4950 C   0  0  0  0  0  0  0  0  0 30  0  0
    0.5362   -3.0928    1.6443 H   0  0  0  0  0  0  0  0  0 43  0  0
    1.1492   -1.2142    2.4525 C   0  0  0  0  0  0  0  0  0 31  0  0
    1.7505   -1.7591    3.6842 C   0  0  0  0  0  0  0  0  0 36  0  0
    2.2912   -1.0895    4.5396 O   0  0  0  0  0  0  0  0  0 37  0  0
    1.6352   -3.0965    3.7430 O   0  0  0  0  0  0  0  0  0 38  0  0
    2.1941   -3.7283    4.8983 C   0  0  0  0  0  0  0  0  0 39  0  0
    2.3837   -3.0016    5.6992 H   0  0  0  0  0  0  0  0  0 40  0  0
    3.1291   -4.2119    4.6055 H   0  0  0  0  0  0  0  0  0 41  0  0
    1.4950   -4.4903    5.2210 H   0  0  0  0  0  0  0  0  0 42  0  0
    1.2009    0.1704    2.2499 C   0  0  0  0  0  0  0  0  0 32  0  0
    1.6512    0.7895    3.0296 H   0  0  0  0  0  0  0  0  0 35  0  0
    0.6455    0.7318    1.1197 C   0  0  0  0  0  0  0  0  0 33  0  0
    0.6859    1.7986    0.9698 H   0  0  0  0  0  0  0  0  0 34  0  0
   -1.1613   -0.1941   -1.5927 H   0  0  0  0  0  0  0  0  0 45  0  0
    2.5356    1.9589   -3.2911 S   0  0  0  0  0  0  0  0  0 50  0  0
    3.7662    0.9893   -5.7351 H   0  0  0  0  0  0  0  0  0 52  0  0
    4.4934   -0.5285   -5.2222 H   0  0  0  0  0  0  0  0  0 53  0  0
  1  2  1  0
  1  3  1  0
  3  4  1  0
  3  5  1  0
  3  6  1  0
  6  7  1  6
  6  8  1  0
  8  9  2  0
  8 10  1  0
 10 11  1  0
 11 12  2  0
 12 13  1  0
 13 14  1  0
 14 15  1  0
 14 16  1  0
 14 17  1  0
 13 18  2  0
 18 19  1  0
 19 20  2  0
 19 21  1  0
 21 22  1  0
 22 23  1  0
 23 24  1  0
 24 25  1  0
 25 26  1  0
 25 27  1  0
 25 28  1  0
 23 29  1  0
 23 30  1  0
 22 31  1  0
 22 32  1  0
 18 33  1  0
 33 34  1  0
 34 35  4  0
 35 36  1  0
 35 37  4  0
 37 38  1  0
 37 39  4  0
 39 40  1  0
 40 41  2  0
 40 42  1  0
 42 43  1  0
 43 44  1  0
 43 45  1  0
 43 46  1  0
 39 47  4  0
 47 48  1  0
 47 49  4  0
 49 50  1  0
 33 51  1  6
 11 52  1  0
  1 53  1  0
  1 54  1  0
 52  6  1  0
 33 10  1  0
 49 34  4  0
M  END
>  <sample_id>  (83)
train::CCC1SC2=NC(C)=C(C(=O)OCCOC)C(c3ccc(C(=O)OC)cc3)N2C1=O__gen0001

>  <partition>  (83)
BAT_EXTERNAL_CONFIRM

>  <method>  (83)
BA_seed193

>  <candidate>  (83)
primary

$$$$
train::CCC1SC2=NC(C)=C(C(=O)OCCOC)C(c3ccc(C(=O)OC)cc3)N2C1=O__gen0002
     RDKit          3D

 54 56  0  0  0  0  0  0  0  0999 V2000
   -2.8618   -4.5034    2.9945 C   0  0  0  0  0  0  0  0  0  0  0  0
   -2.8518   -4.0749    3.9909 H   0  0  0  0  0  0  0  0  0  1  0  0
   -2.0127   -3.6835    2.0420 C   0  0  0  0  0  0  0  0  0  2  0  0
   -2.3805   -2.6511    2.0242 H   0  0  0  0  0  0  0  0  0  3  0  0
   -2.0887   -4.0886    1.0305 H   0  0  0  0  0  0  0  0  0  4  0  0
   -0.5479   -3.6687    2.4259 C   0  0  1  0  0  0  0  0  0  5  0  0
   -0.1687   -4.6863    2.5539 H   0  0  0  0  0  0  0  0  0 51  0  0
    0.2837   -2.9515    1.3743 C   0  0  0  0  0  0  0  0  0  6  0  0
    0.4342   -3.3245    0.2398 O   0  0  0  0  0  0  0  0  0  7  0  0
    0.7688   -1.7761    1.8694 N   0  0  0  0  0  0  0  0  0  8  0  0
    0.5526   -1.4769    3.1768 C   0  0  0  0  0  0  0  0  0  9  0  0
    0.9597   -0.4173    3.7709 N   0  0  0  0  0  0  0  0  0 10  0  0
    1.6819    0.4971    3.0863 C   0  0  0  0  0  0  0  0  0 11  0  0
    2.1746    1.6235    3.9015 C   0  0  0  0  0  0  0  0  0 46  0  0
    1.8721    1.4735    4.9370 H   0  0  0  0  0  0  0  0  0 47  0  0
    1.7563    2.5657    3.5381 H   0  0  0  0  0  0  0  0  0 48  0  0
    3.2551    1.7174    3.8203 H   0  0  0  0  0  0  0  0  0 49  0  0
    1.9289    0.3688    1.7279 C   0  0  0  0  0  0  0  0  0 12  0  0
    2.6575    1.3911    0.9703 C   0  0  0  0  0  0  0  0  0 13  0  0
    3.1149    2.4124    1.4247 O   0  0  0  0  0  0  0  0  0 14  0  0
    2.7385    1.0451   -0.3308 O   0  0  0  0  0  0  0  0  0 15  0  0
    3.2401    2.0595   -1.1910 C   0  0  0  0  0  0  0  0  0 16  0  0
    2.1602    3.1122   -1.5039 C   0  0  0  0  0  0  0  0  0 17  0  0
    0.9778    2.5766   -2.0231 O   0  0  0  0  0  0  0  0  0 18  0  0
    1.0196    2.3154   -3.4019 C   0  0  0  0  0  0  0  0  0 19  0  0
    0.0274    1.9384   -3.6719 H   0  0  0  0  0  0  0  0  0 20  0  0
    1.7644    1.5804   -3.6838 H   0  0  0  0  0  0  0  0  0 21  0  0
    1.2195    3.2306   -3.9749 H   0  0  0  0  0  0  0  0  0 22  0  0
    1.8648    3.5911   -0.5698 H   0  0  0  0  0  0  0  0  0 23  0  0
    2.5830    3.8667   -2.1775 H   0  0  0  0  0  0  0  0  0 24  0  0
    4.0925    2.5528   -0.7336 H   0  0  0  0  0  0  0  0  0 25  0  0
    3.5499    1.5358   -2.1026 H   0  0  0  0  0  0  0  0  0 26  0  0
    1.3984   -0.8107    0.9459 C   0  0  2  0  0  0  0  0  0 27  0  0
    0.3987   -0.3867   -0.1001 C   0  0  0  0  0  0  0  0  0 28  0  0
   -0.5834    0.5454    0.1925 C   0  0  0  0  0  0  0  0  0 29  0  0
   -0.6207    0.9848    1.1813 H   0  0  0  0  0  0  0  0  0 44  0  0
   -1.4867    0.9182   -0.7805 C   0  0  0  0  0  0  0  0  0 30  0  0
   -2.2501    1.6514   -0.5398 H   0  0  0  0  0  0  0  0  0 43  0  0
   -1.4441    0.3532   -2.0478 C   0  0  0  0  0  0  0  0  0 31  0  0
   -2.3652    0.7235   -3.1184 C   0  0  0  0  0  0  0  0  0 36  0  0
   -2.3150    0.3006   -4.2553 O   0  0  0  0  0  0  0  0  0 37  0  0
   -3.2880    1.6350   -2.7406 O   0  0  0  0  0  0  0  0  0 38  0  0
   -4.2100    2.0207   -3.7503 C   0  0  0  0  0  0  0  0  0 39  0  0
   -4.7309    1.1363   -4.1487 H   0  0  0  0  0  0  0  0  0 40  0  0
   -3.6957    2.5149   -4.5755 H   0  0  0  0  0  0  0  0  0 41  0  0
   -4.9182    2.6939   -3.2838 H   0  0  0  0  0  0  0  0  0 42  0  0
   -0.4605   -0.5824   -2.3376 C   0  0  0  0  0  0  0  0  0 32  0  0
   -0.4203   -1.0162   -3.3284 H   0  0  0  0  0  0  0  0  0 35  0  0
    0.4599   -0.9478   -1.3742 C   0  0  0  0  0  0  0  0  0 33  0  0
    1.2069   -1.6943   -1.6072 H   0  0  0  0  0  0  0  0  0 34  0  0
    2.2294   -1.3301    0.4456 H   0  0  0  0  0  0  0  0  0 45  0  0
   -0.2929   -2.7811    3.9893 S   0  0  0  0  0  0  0  0  0 50  0  0
   -3.8895   -4.5501    2.6474 H   0  0  0  0  0  0  0  0  0 52  0  0
   -2.4881   -5.5301    3.0516 H   0  0  0  0  0  0  0  0  0 53  0  0
  1  2  1  0
  1  3  1  0
  3  4  1  0
  3  5  1  0
  3  6  1  0
  6  7  1  1
  6  8  1  0
  8  9  2  0
  8 10  1  0
 10 11  1  0
 11 12  2  0
 12 13  1  0
 13 14  1  0
 14 15  1  0
 14 16  1  0
 14 17  1  0
 13 18  2  0
 18 19  1  0
 19 20  2  0
 19 21  1  0
 21 22  1  0
 22 23  1  0
 23 24  1  0
 24 25  1  0
 25 26  1  0
 25 27  1  0
 25 28  1  0
 23 29  1  0
 23 30  1  0
 22 31  1  0
 22 32  1  0
 18 33  1  0
 33 34  1  0
 34 35  4  0
 35 36  1  0
 35 37  4  0
 37 38  1  0
 37 39  4  0
 39 40  1  0
 40 41  2  0
 40 42  1  0
 42 43  1  0
 43 44  1  0
 43 45  1  0
 43 46  1  0
 39 47  4  0
 47 48  1  0
 47 49  4  0
 49 50  1  0
 33 51  1  6
 11 52  1  0
  1 53  1  0
  1 54  1  0
 52  6  1  0
 33 10  1  0
 49 34  4  0
M  END
>  <sample_id>  (84)
train::CCC1SC2=NC(C)=C(C(=O)OCCOC)C(c3ccc(C(=O)OC)cc3)N2C1=O__gen0002

>  <partition>  (84)
BAT_EXTERNAL_CONFIRM

>  <method>  (84)
BA_seed193

>  <candidate>  (84)
primary

$$$$
train::CN(C)C(=O)c1cc(C(=O)c2ccc(C(F)(F)F)cc2)c[nH]1__gen0000
     RDKit          3D

 35 36  0  0  0  0  0  0  0  0999 V2000
   -0.3242    2.9610    3.6856 C   0  0  0  0  0  0  0  0  0  0  0  0
   -0.5530    1.6980    4.3380 N   0  0  0  0  0  0  0  0  0  1  0  0
   -0.4879    0.4901    3.7561 C   0  0  0  0  0  0  0  0  0  2  0  0
   -0.6593   -0.5415    4.3655 O   0  0  0  0  0  0  0  0  0  3  0  0
   -0.1777    0.3962    2.2965 C   0  0  0  0  0  0  0  0  0  4  0  0
   -0.0326    1.2173    1.1885 C   0  0  0  0  0  0  0  0  0  5  0  0
   -0.1108    2.2764    1.1521 H   0  0  0  0  0  0  0  0  0 27  0  0
    0.2102    0.3858    0.0808 C   0  0  0  0  0  0  0  0  0  6  0  0
    0.4380    0.8630   -1.2800 C   0  0  0  0  0  0  0  0  0 11  0  0
    0.6816    2.0358   -1.5402 O   0  0  0  0  0  0  0  0  0 12  0  0
    0.3897   -0.1507   -2.3742 C   0  0  0  0  0  0  0  0  0 13  0  0
    1.3291   -0.0696   -3.4008 C   0  0  0  0  0  0  0  0  0 14  0  0
    2.0674    0.7187   -3.3872 H   0  0  0  0  0  0  0  0  0 26  0  0
    1.2962   -0.9793   -4.4329 C   0  0  0  0  0  0  0  0  0 15  0  0
    2.0132   -0.9224   -5.2434 H   0  0  0  0  0  0  0  0  0 25  0  0
    0.3227   -1.9678   -4.4470 C   0  0  0  0  0  0  0  0  0 16  0  0
    0.3150   -2.9551   -5.5745 C   0  0  1  0  0  0  0  0  0 21  0  0
   -0.7757   -3.7454   -5.5995 F   0  0  0  0  0  0  0  0  0 22  0  0
    0.3974   -2.3811   -6.7866 F   0  0  0  0  0  0  0  0  0 23  0  0
    1.3655   -3.8052   -5.5074 F   0  0  0  0  0  0  0  0  0 24  0  0
   -0.6279   -2.0376   -3.4424 C   0  0  0  0  0  0  0  0  0 17  0  0
   -1.3947   -2.7968   -3.4816 H   0  0  0  0  0  0  0  0  0 20  0  0
   -0.5795   -1.1420   -2.3926 C   0  0  0  0  0  0  0  0  0 18  0  0
   -1.3351   -1.1778   -1.6223 H   0  0  0  0  0  0  0  0  0 19  0  0
    0.2527   -0.9168    0.5602 C   0  0  0  0  0  0  0  0  0  7  0  0
    0.4478   -1.8388    0.0236 H   0  0  0  0  0  0  0  0  0 10  0  0
    0.0248   -0.8970    1.8722 N   0  0  0  0  0  0  0  0  0  8  0  0
   -0.0509   -1.6789    2.5034 H   0  0  0  0  0  0  0  0  0  9  0  0
   -0.8551    1.7592    5.7517 C   0  0  0  0  0  0  0  0  0 28  0  0
   -1.7458    2.3433    5.9282 H   0  0  0  0  0  0  0  0  0 29  0  0
   -1.0087    0.7300    6.1161 H   0  0  0  0  0  0  0  0  0 30  0  0
   -0.0217    2.2138    6.3011 H   0  0  0  0  0  0  0  0  0 31  0  0
   -1.0596    3.1539    2.9046 H   0  0  0  0  0  0  0  0  0 32  0  0
    0.6755    3.0090    3.2596 H   0  0  0  0  0  0  0  0  0 33  0  0
   -0.4267    3.7525    4.4285 H   0  0  0  0  0  0  0  0  0 34  0  0
  1  2  1  0
  2  3  1  0
  3  4  2  0
  3  5  1  0
  5  6  4  0
  6  7  1  0
  6  8  4  0
  8  9  1  0
  9 10  2  0
  9 11  1  0
 11 12  4  0
 12 13  1  0
 12 14  4  0
 14 15  1  0
 14 16  4  0
 16 17  1  0
 17 18  1  6
 17 19  1  0
 17 20  1  0
 16 21  4  0
 21 22  1  0
 21 23  4  0
 23 24  1  0
  8 25  4  0
 25 26  1  0
 25 27  4  0
 27 28  1  0
  2 29  1  0
 29 30  1  0
 29 31  1  0
 29 32  1  0
  1 33  1  0
  1 34  1  0
  1 35  1  0
 27  5  4  0
 23 11  4  0
M  END
>  <sample_id>  (85)
train::CN(C)C(=O)c1cc(C(=O)c2ccc(C(F)(F)F)cc2)c[nH]1__gen0000

>  <partition>  (85)
BAT_EXTERNAL_CONFIRM

>  <method>  (85)
BA_seed193

>  <candidate>  (85)
primary

$$$$
train::CN(C)C(=O)c1cc(C(=O)c2ccc(C(F)(F)F)cc2)c[nH]1__gen0001
     RDKit          3D

 35 36  0  0  0  0  0  0  0  0999 V2000
   -0.9896    3.8286   -3.6980 C   0  0  0  0  0  0  0  0  0  0  0  0
   -0.4534    3.3457   -2.4428 N   0  0  0  0  0  0  0  0  0  1  0  0
   -1.0768    2.3264   -1.8103 C   0  0  0  0  0  0  0  0  0  2  0  0
   -2.0687    1.7699   -2.2575 O   0  0  0  0  0  0  0  0  0  3  0  0
   -0.5223    1.9273   -0.4922 C   0  0  0  0  0  0  0  0  0  4  0  0
   -0.1889    0.6844   -0.0129 C   0  0  0  0  0  0  0  0  0  5  0  0
   -0.1654   -0.2053   -0.5984 H   0  0  0  0  0  0  0  0  0 27  0  0
    0.1353    0.8225    1.3510 C   0  0  0  0  0  0  0  0  0  6  0  0
    0.6082   -0.1875    2.3012 C   0  0  0  0  0  0  0  0  0 11  0  0
    1.1296    0.1277    3.3576 O   0  0  0  0  0  0  0  0  0 12  0  0
    0.4698   -1.6094    1.8967 C   0  0  0  0  0  0  0  0  0 13  0  0
    1.5072   -2.4918    2.1785 C   0  0  0  0  0  0  0  0  0 14  0  0
    2.3967   -2.1135    2.6502 H   0  0  0  0  0  0  0  0  0 26  0  0
    1.4049   -3.8243    1.8381 C   0  0  0  0  0  0  0  0  0 15  0  0
    2.2148   -4.5095    2.0451 H   0  0  0  0  0  0  0  0  0 25  0  0
    0.2394   -4.2962    1.2423 C   0  0  0  0  0  0  0  0  0 16  0  0
    0.1322   -5.7385    0.8522 C   0  0  1  0  0  0  0  0  0 21  0  0
   -1.1308   -6.1878    0.8382 F   0  0  0  0  0  0  0  0  0 22  0  0
    0.6296   -5.9618   -0.3759 F   0  0  0  0  0  0  0  0  0 23  0  0
    0.8234   -6.5426    1.6793 F   0  0  0  0  0  0  0  0  0 24  0  0
   -0.8175   -3.4272    0.9872 C   0  0  0  0  0  0  0  0  0 17  0  0
   -1.7324   -3.8025    0.5468 H   0  0  0  0  0  0  0  0  0 20  0  0
   -0.7018   -2.0873    1.3055 C   0  0  0  0  0  0  0  0  0 18  0  0
   -1.5275   -1.4158    1.1168 H   0  0  0  0  0  0  0  0  0 19  0  0
   -0.0366    2.1599    1.6699 C   0  0  0  0  0  0  0  0  0  7  0  0
    0.1129    2.6616    2.6106 H   0  0  0  0  0  0  0  0  0 10  0  0
   -0.4364    2.8138    0.5642 N   0  0  0  0  0  0  0  0  0  8  0  0
   -0.6829    3.7894    0.5018 H   0  0  0  0  0  0  0  0  0  9  0  0
    0.7857    3.9521   -2.0266 C   0  0  0  0  0  0  0  0  0 28  0  0
    0.6095    4.9619   -1.6443 H   0  0  0  0  0  0  0  0  0 29  0  0
    1.2638    3.3583   -1.2464 H   0  0  0  0  0  0  0  0  0 30  0  0
    1.4609    4.0182   -2.8824 H   0  0  0  0  0  0  0  0  0 31  0  0
   -1.1377    4.9113   -3.6447 H   0  0  0  0  0  0  0  0  0 32  0  0
   -1.9455    3.3369   -3.8757 H   0  0  0  0  0  0  0  0  0 33  0  0
   -0.3097    3.6052   -4.5252 H   0  0  0  0  0  0  0  0  0 34  0  0
  1  2  1  0
  2  3  1  0
  3  4  2  0
  3  5  1  0
  5  6  4  0
  6  7  1  0
  6  8  4  0
  8  9  1  0
  9 10  2  0
  9 11  1  0
 11 12  4  0
 12 13  1  0
 12 14  4  0
 14 15  1  0
 14 16  4  0
 16 17  1  0
 17 18  1  6
 17 19  1  0
 17 20  1  0
 16 21  4  0
 21 22  1  0
 21 23  4  0
 23 24  1  0
  8 25  4  0
 25 26  1  0
 25 27  4  0
 27 28  1  0
  2 29  1  0
 29 30  1  0
 29 31  1  0
 29 32  1  0
  1 33  1  0
  1 34  1  0
  1 35  1  0
 27  5  4  0
 23 11  4  0
M  END
>  <sample_id>  (86)
train::CN(C)C(=O)c1cc(C(=O)c2ccc(C(F)(F)F)cc2)c[nH]1__gen0001

>  <partition>  (86)
BAT_EXTERNAL_CONFIRM

>  <method>  (86)
BA_seed193

>  <candidate>  (86)
primary

$$$$
train::CN(C)C(=O)c1cc(C(=O)c2ccc(C(F)(F)F)cc2)c[nH]1__gen0002
     RDKit          3D

 35 36  0  0  0  0  0  0  0  0999 V2000
    3.8490    0.9679   -4.5221 C   0  0  0  0  0  0  0  0  0  0  0  0
    2.7779    0.6202   -3.6221 N   0  0  0  0  0  0  0  0  0  1  0  0
    3.0605    0.3725   -2.3232 C   0  0  0  0  0  0  0  0  0  2  0  0
    4.1971    0.3944   -1.8881 O   0  0  0  0  0  0  0  0  0  3  0  0
    1.9197    0.0555   -1.4283 C   0  0  0  0  0  0  0  0  0  4  0  0
    1.7657   -0.9611   -0.5270 C   0  0  0  0  0  0  0  0  0  5  0  0
    2.4211   -1.8021   -0.3942 H   0  0  0  0  0  0  0  0  0 27  0  0
    0.5588   -0.7583    0.1571 C   0  0  0  0  0  0  0  0  0  6  0  0
   -0.0229   -1.6422    1.1657 C   0  0  0  0  0  0  0  0  0 11  0  0
    0.3276   -2.8043    1.2842 O   0  0  0  0  0  0  0  0  0 12  0  0
   -1.1032   -1.0667    2.0177 C   0  0  0  0  0  0  0  0  0 13  0  0
   -2.2432   -1.8298    2.2750 C   0  0  0  0  0  0  0  0  0 14  0  0
   -2.3341   -2.7956    1.8261 H   0  0  0  0  0  0  0  0  0 26  0  0
   -3.2481   -1.3313    3.0823 C   0  0  0  0  0  0  0  0  0 15  0  0
   -4.1398   -1.9075    3.2731 H   0  0  0  0  0  0  0  0  0 25  0  0
   -3.0987   -0.0694    3.6549 C   0  0  0  0  0  0  0  0  0 16  0  0
   -4.2099    0.4974    4.4870 C   0  0  1  0  0  0  0  0  0 21  0  0
   -5.1417    1.1080    3.7299 F   0  0  0  0  0  0  0  0  0 22  0  0
   -4.8589   -0.4491    5.1918 F   0  0  0  0  0  0  0  0  0 23  0  0
   -3.7889    1.4089    5.3782 F   0  0  0  0  0  0  0  0  0 24  0  0
   -1.9597    0.6882    3.4224 C   0  0  0  0  0  0  0  0  0 17  0  0
   -1.8448    1.6530    3.8946 H   0  0  0  0  0  0  0  0  0 20  0  0
   -0.9644    0.1901    2.6000 C   0  0  0  0  0  0  0  0  0 18  0  0
   -0.0607    0.7651    2.4404 H   0  0  0  0  0  0  0  0  0 19  0  0
    0.0295    0.4433   -0.3074 C   0  0  0  0  0  0  0  0  0  7  0  0
   -0.8759    0.9606   -0.0583 H   0  0  0  0  0  0  0  0  0 10  0  0
    0.8466    0.9181   -1.2734 N   0  0  0  0  0  0  0  0  0  8  0  0
    0.7762    1.8018   -1.7567 H   0  0  0  0  0  0  0  0  0  9  0  0
    1.4943    0.4116   -4.2478 C   0  0  0  0  0  0  0  0  0 28  0  0
    1.0354    1.3565   -4.5374 H   0  0  0  0  0  0  0  0  0 29  0  0
    1.6327   -0.2042   -5.1483 H   0  0  0  0  0  0  0  0  0 30  0  0
    0.8233   -0.1338   -3.5886 H   0  0  0  0  0  0  0  0  0 31  0  0
    4.7409    1.1558   -3.9277 H   0  0  0  0  0  0  0  0  0 32  0  0
    4.0378    0.1505   -5.2262 H   0  0  0  0  0  0  0  0  0 33  0  0
    3.6009    1.8360   -5.1034 H   0  0  0  0  0  0  0  0  0 34  0  0
  1  2  1  0
  2  3  1  0
  3  4  2  0
  3  5  1  0
  5  6  4  0
  6  7  1  0
  6  8  4  0
  8  9  1  0
  9 10  2  0
  9 11  1  0
 11 12  4  0
 12 13  1  0
 12 14  4  0
 14 15  1  0
 14 16  4  0
 16 17  1  0
 17 18  1  6
 17 19  1  0
 17 20  1  0
 16 21  4  0
 21 22  1  0
 21 23  4  0
 23 24  1  0
  8 25  4  0
 25 26  1  0
 25 27  4  0
 27 28  1  0
  2 29  1  0
 29 30  1  0
 29 31  1  0
 29 32  1  0
  1 33  1  0
  1 34  1  0
  1 35  1  0
 27  5  4  0
 23 11  4  0
M  END
>  <sample_id>  (87)
train::CN(C)C(=O)c1cc(C(=O)c2ccc(C(F)(F)F)cc2)c[nH]1__gen0002

>  <partition>  (87)
BAT_EXTERNAL_CONFIRM

>  <method>  (87)
BA_seed193

>  <candidate>  (87)
primary

$$$$
train::NC(=O)CC1C(=O)N(c2ccc(F)cc2)C(=O)N1NC(=O)CCc1ccccc1__gen0000
     RDKit          3D

 48 50  0  0  0  0  0  0  0  0999 V2000
   -0.8164   -2.9326   -3.0760 N   0  0  0  0  0  0  0  0  0  0  0  0
   -0.3998   -1.6582   -2.9176 C   0  0  0  0  0  0  0  0  0  1  0  0
    0.7736   -1.2989   -3.2199 O   0  0  0  0  0  0  0  0  0  2  0  0
   -1.4375   -0.7035   -2.3681 C   0  0  0  0  0  0  0  0  0  3  0  0
   -2.2364   -1.2548   -1.8704 H   0  0  0  0  0  0  0  0  0  4  0  0
   -1.8402   -0.1321   -3.2028 H   0  0  0  0  0  0  0  0  0  5  0  0
   -0.7621    0.2692   -1.3980 C   0  0  2  0  0  0  0  0  0  6  0  0
    0.2629    0.4299   -1.7990 H   0  0  0  0  0  0  0  0  0 45  0  0
   -0.6668   -0.1661   -0.0108 N   0  0  0  0  0  0  0  0  0  7  0  0
   -0.0204   -1.2932    0.4153 N   0  0  0  0  0  0  0  0  0 24  0  0
   -0.4290   -2.5640    0.2961 C   0  0  0  0  0  0  0  0  0 25  0  0
   -1.3983   -2.9078   -0.3706 O   0  0  0  0  0  0  0  0  0 26  0  0
    0.4831   -3.5484    1.0220 C   0  0  0  0  0  0  0  0  0 27  0  0
   -0.0414   -4.5058    1.0242 H   0  0  0  0  0  0  0  0  0 28  0  0
    0.6027   -3.2042    2.0485 H   0  0  0  0  0  0  0  0  0 29  0  0
    1.8520   -3.6610    0.3227 C   0  0  0  0  0  0  0  0  0 30  0  0
    2.6448   -2.3916    0.3903 C   0  0  0  0  0  0  0  0  0 31  0  0
    2.7969   -1.5810   -0.7195 C   0  0  0  0  0  0  0  0  0 32  0  0
    2.3990   -1.8949   -1.6832 H   0  0  0  0  0  0  0  0  0 41  0  0
    3.4900   -0.3862   -0.6301 C   0  0  0  0  0  0  0  0  0 33  0  0
    3.6037    0.2196   -1.5135 H   0  0  0  0  0  0  0  0  0 40  0  0
    4.0122    0.0469    0.5670 C   0  0  0  0  0  0  0  0  0 34  0  0
    4.5470    0.9632    0.6483 H   0  0  0  0  0  0  0  0  0 39  0  0
    3.8622   -0.7851    1.6948 C   0  0  0  0  0  0  0  0  0 35  0  0
    4.2852   -0.4587    2.6515 H   0  0  0  0  0  0  0  0  0 38  0  0
    3.1935   -1.9733    1.5956 C   0  0  0  0  0  0  0  0  0 36  0  0
    3.0727   -2.6034    2.4867 H   0  0  0  0  0  0  0  0  0 37  0  0
    2.3920   -4.4790    0.8062 H   0  0  0  0  0  0  0  0  0 42  0  0
    1.6775   -3.9363   -0.7276 H   0  0  0  0  0  0  0  0  0 43  0  0
    0.7502   -1.0819    1.0618 H   0  0  0  0  0  0  0  0  0 44  0  0
   -0.9340    0.8660    0.8466 C   0  0  0  0  0  0  0  0  0  8  0  0
   -0.7046    0.8248    2.0457 O   0  0  0  0  0  0  0  0  0  9  0  0
   -1.4729    1.8964    0.0975 N   0  0  0  0  0  0  0  0  0 10  0  0
   -1.9860    3.0833    0.6836 C   0  0  0  0  0  0  0  0  0 13  0  0
   -3.1500    3.6504    0.1869 C   0  0  0  0  0  0  0  0  0 14  0  0
   -3.6729    3.1840   -0.6295 H   0  0  0  0  0  0  0  0  0 23  0  0
   -3.6607    4.8094    0.7619 C   0  0  0  0  0  0  0  0  0 15  0  0
   -4.5600    5.2607    0.4046 H   0  0  0  0  0  0  0  0  0 22  0  0
   -2.9684    5.3752    1.8198 C   0  0  0  0  0  0  0  0  0 16  0  0
   -3.4593    6.5023    2.3817 F   0  0  0  0  0  0  0  0  0 21  0  0
   -1.8123    4.8211    2.3324 C   0  0  0  0  0  0  0  0  0 17  0  0
   -1.3073    5.3032    3.1552 H   0  0  0  0  0  0  0  0  0 20  0  0
   -1.3038    3.6757    1.7392 C   0  0  0  0  0  0  0  0  0 18  0  0
   -0.4012    3.2313    2.1168 H   0  0  0  0  0  0  0  0  0 19  0  0
   -1.4755    1.5927   -1.2629 C   0  0  0  0  0  0  0  0  0 11  0  0
   -1.9349    2.2690   -2.1400 O   0  0  0  0  0  0  0  0  0 12  0  0
   -0.1722   -3.6212   -3.4181 H   0  0  0  0  0  0  0  0  0 46  0  0
   -1.6768   -3.2508   -2.6455 H   0  0  0  0  0  0  0  0  0 47  0  0
  1  2  1  0
  2  3  2  0
  2  4  1  0
  4  5  1  0
  4  6  1  0
  4  7  1  0
  7  8  1  6
  7  9  1  0
  9 10  1  0
 10 11  1  0
 11 12  2  0
 11 13  1  0
 13 14  1  0
 13 15  1  0
 13 16  1  0
 16 17  1  0
 17 18  4  0
 18 19  1  0
 18 20  4  0
 20 21  1  0
 20 22  4  0
 22 23  1  0
 22 24  4  0
 24 25  1  0
 24 26  4  0
 26 27  1  0
 16 28  1  0
 16 29  1  0
 10 30  1  0
  9 31  1  0
 31 32  2  0
 31 33  1  0
 33 34  1  0
 34 35  4  0
 35 36  1  0
 35 37  4  0
 37 38  1  0
 37 39  4  0
 39 40  1  0
 39 41  4  0
 41 42  1  0
 41 43  4  0
 43 44  1  0
 33 45  1  0
 45 46  2  0
  1 47  1  0
  1 48  1  0
 45  7  1  0
 26 17  4  0
 43 34  4  0
M  END
>  <sample_id>  (88)
train::NC(=O)CC1C(=O)N(c2ccc(F)cc2)C(=O)N1NC(=O)CCc1ccccc1__gen0000

>  <partition>  (88)
BAT_EXTERNAL_CONFIRM

>  <method>  (88)
BA_seed193

>  <candidate>  (88)
primary

$$$$
train::NC(=O)CC1C(=O)N(c2ccc(F)cc2)C(=O)N1NC(=O)CCc1ccccc1__gen0001
     RDKit          3D

 48 50  0  0  0  0  0  0  0  0999 V2000
    2.2500   -1.9092   -2.6910 N   0  0  0  0  0  0  0  0  0  0  0  0
    1.0287   -1.3855   -2.4327 C   0  0  0  0  0  0  0  0  0  1  0  0
   -0.0045   -1.8339   -2.9125 O   0  0  0  0  0  0  0  0  0  2  0  0
    1.0624   -0.1378   -1.5470 C   0  0  0  0  0  0  0  0  0  3  0  0
    0.0598    0.2940   -1.5375 H   0  0  0  0  0  0  0  0  0  4  0  0
    1.7578    0.5824   -1.9976 H   0  0  0  0  0  0  0  0  0  5  0  0
    1.5128   -0.4610   -0.1107 C   0  0  2  0  0  0  0  0  0  6  0  0
    2.1230   -1.3786   -0.1402 H   0  0  0  0  0  0  0  0  0 45  0  0
    0.3997   -0.6222    0.8004 N   0  0  0  0  0  0  0  0  0  7  0  0
   -0.6394   -1.4781    0.5900 N   0  0  0  0  0  0  0  0  0 24  0  0
   -0.5561   -2.6757   -0.0116 C   0  0  0  0  0  0  0  0  0 25  0  0
    0.5050   -3.1274   -0.4086 O   0  0  0  0  0  0  0  0  0 26  0  0
   -1.8804   -3.3717   -0.1781 C   0  0  0  0  0  0  0  0  0 27  0  0
   -2.0161   -4.0102    0.6977 H   0  0  0  0  0  0  0  0  0 28  0  0
   -1.7773   -4.0418   -1.0388 H   0  0  0  0  0  0  0  0  0 29  0  0
   -3.1061   -2.4573   -0.3244 C   0  0  0  0  0  0  0  0  0 30  0  0
   -2.9060   -1.3913   -1.3634 C   0  0  0  0  0  0  0  0  0 31  0  0
   -2.7311   -0.0596   -0.9882 C   0  0  0  0  0  0  0  0  0 32  0  0
   -2.7356    0.2172    0.0651 H   0  0  0  0  0  0  0  0  0 41  0  0
   -2.5209    0.9306   -1.9346 C   0  0  0  0  0  0  0  0  0 33  0  0
   -2.3809    1.9507   -1.6086 H   0  0  0  0  0  0  0  0  0 40  0  0
   -2.5112    0.6028   -3.2802 C   0  0  0  0  0  0  0  0  0 34  0  0
   -2.3608    1.3768   -4.0181 H   0  0  0  0  0  0  0  0  0 39  0  0
   -2.7107   -0.7045   -3.6630 C   0  0  0  0  0  0  0  0  0 35  0  0
   -2.7276   -0.9582   -4.7162 H   0  0  0  0  0  0  0  0  0 38  0  0
   -2.9167   -1.6939   -2.7177 C   0  0  0  0  0  0  0  0  0 36  0  0
   -3.0655   -2.7127   -3.0278 H   0  0  0  0  0  0  0  0  0 37  0  0
   -3.9579   -3.0927   -0.6182 H   0  0  0  0  0  0  0  0  0 42  0  0
   -3.3595   -2.0037    0.6335 H   0  0  0  0  0  0  0  0  0 43  0  0
   -1.4643   -1.1884    1.1173 H   0  0  0  0  0  0  0  0  0 44  0  0
    0.3648    0.3488    1.7562 C   0  0  0  0  0  0  0  0  0  8  0  0
   -0.5095    0.4942    2.5807 O   0  0  0  0  0  0  0  0  0  9  0  0
    1.5358    1.1080    1.5899 N   0  0  0  0  0  0  0  0  0 10  0  0
    1.8922    2.1766    2.4620 C   0  0  0  0  0  0  0  0  0 13  0  0
    0.9151    3.0299    2.9454 C   0  0  0  0  0  0  0  0  0 14  0  0
   -0.1169    2.9013    2.6441 H   0  0  0  0  0  0  0  0  0 23  0  0
    1.2442    4.0656    3.8024 C   0  0  0  0  0  0  0  0  0 15  0  0
    0.4997    4.7440    4.1794 H   0  0  0  0  0  0  0  0  0 22  0  0
    2.5695    4.2308    4.1472 C   0  0  0  0  0  0  0  0  0 16  0  0
    2.9093    5.2380    4.9694 F   0  0  0  0  0  0  0  0  0 21  0  0
    3.5667    3.3844    3.6774 C   0  0  0  0  0  0  0  0  0 17  0  0
    4.5932    3.5554    3.9826 H   0  0  0  0  0  0  0  0  0 20  0  0
    3.2177    2.3518    2.8405 C   0  0  0  0  0  0  0  0  0 18  0  0
    3.9777    1.6900    2.4556 H   0  0  0  0  0  0  0  0  0 19  0  0
    2.2814    0.6926    0.5151 C   0  0  0  0  0  0  0  0  0 11  0  0
    3.3311    1.1451    0.1422 O   0  0  0  0  0  0  0  0  0 12  0  0
    3.0692   -1.6037   -2.2010 H   0  0  0  0  0  0  0  0  0 46  0  0
    2.2877   -2.8117   -3.1266 H   0  0  0  0  0  0  0  0  0 47  0  0
  1  2  1  0
  2  3  2  0
  2  4  1  0
  4  5  1  0
  4  6  1  0
  4  7  1  0
  7  8  1  6
  7  9  1  0
  9 10  1  0
 10 11  1  0
 11 12  2  0
 11 13  1  0
 13 14  1  0
 13 15  1  0
 13 16  1  0
 16 17  1  0
 17 18  4  0
 18 19  1  0
 18 20  4  0
 20 21  1  0
 20 22  4  0
 22 23  1  0
 22 24  4  0
 24 25  1  0
 24 26  4  0
 26 27  1  0
 16 28  1  0
 16 29  1  0
 10 30  1  0
  9 31  1  0
 31 32  2  0
 31 33  1  0
 33 34  1  0
 34 35  4  0
 35 36  1  0
 35 37  4  0
 37 38  1  0
 37 39  4  0
 39 40  1  0
 39 41  4  0
 41 42  1  0
 41 43  4  0
 43 44  1  0
 33 45  1  0
 45 46  2  0
  1 47  1  0
  1 48  1  0
 45  7  1  0
 26 17  4  0
 43 34  4  0
M  END
>  <sample_id>  (89)
train::NC(=O)CC1C(=O)N(c2ccc(F)cc2)C(=O)N1NC(=O)CCc1ccccc1__gen0001

>  <partition>  (89)
BAT_EXTERNAL_CONFIRM

>  <method>  (89)
BA_seed193

>  <candidate>  (89)
primary

$$$$
train::NC(=O)CC1C(=O)N(c2ccc(F)cc2)C(=O)N1NC(=O)CCc1ccccc1__gen0002
     RDKit          3D

 48 50  0  0  0  0  0  0  0  0999 V2000
   -2.4475    1.8805   -1.6546 N   0  0  0  0  0  0  0  0  0  0  0  0
   -1.1838    1.4501   -1.4968 C   0  0  0  0  0  0  0  0  0  1  0  0
   -0.6359    1.3682   -0.4049 O   0  0  0  0  0  0  0  0  0  2  0  0
   -0.4586    1.1148   -2.7988 C   0  0  0  0  0  0  0  0  0  3  0  0
   -1.1675    0.7025   -3.5107 H   0  0  0  0  0  0  0  0  0  4  0  0
   -0.0450    2.0530   -3.2113 H   0  0  0  0  0  0  0  0  0  5  0  0
    0.7035    0.1693   -2.5269 C   0  0  2  0  0  0  0  0  0  6  0  0
    1.0263   -0.2975   -3.4688 H   0  0  0  0  0  0  0  0  0 45  0  0
    0.4532   -0.8648   -1.5319 N   0  0  0  0  0  0  0  0  0  7  0  0
   -0.5215   -1.8047   -1.4314 N   0  0  0  0  0  0  0  0  0 24  0  0
   -1.8534   -1.7146   -1.6553 C   0  0  0  0  0  0  0  0  0 25  0  0
   -2.3629   -0.8875   -2.3938 O   0  0  0  0  0  0  0  0  0 26  0  0
   -2.6542   -2.7960   -0.9768 C   0  0  0  0  0  0  0  0  0 27  0  0
   -2.4466   -3.7519   -1.4759 H   0  0  0  0  0  0  0  0  0 28  0  0
   -3.7041   -2.5565   -1.1344 H   0  0  0  0  0  0  0  0  0 29  0  0
   -2.3474   -2.9272    0.5313 C   0  0  0  0  0  0  0  0  0 30  0  0
   -2.2858   -1.6123    1.2360 C   0  0  0  0  0  0  0  0  0 31  0  0
   -3.3027   -0.6720    1.1040 C   0  0  0  0  0  0  0  0  0 32  0  0
   -4.1801   -0.9057    0.5068 H   0  0  0  0  0  0  0  0  0 41  0  0
   -3.2281    0.5601    1.7348 C   0  0  0  0  0  0  0  0  0 33  0  0
   -4.0178    1.2772    1.5942 H   0  0  0  0  0  0  0  0  0 40  0  0
   -2.1244    0.8721    2.4924 C   0  0  0  0  0  0  0  0  0 34  0  0
   -2.0459    1.8428    2.9723 H   0  0  0  0  0  0  0  0  0 39  0  0
   -1.1146   -0.0578    2.6521 C   0  0  0  0  0  0  0  0  0 35  0  0
   -0.2533    0.1624    3.2791 H   0  0  0  0  0  0  0  0  0 38  0  0
   -1.1935   -1.2801    2.0183 C   0  0  0  0  0  0  0  0  0 36  0  0
   -0.3925   -2.0010    2.1492 H   0  0  0  0  0  0  0  0  0 37  0  0
   -3.1325   -3.5362    0.9715 H   0  0  0  0  0  0  0  0  0 42  0  0
   -1.4000   -3.4535    0.6684 H   0  0  0  0  0  0  0  0  0 43  0  0
   -0.2152   -2.5435   -0.7955 H   0  0  0  0  0  0  0  0  0 44  0  0
    1.2717   -0.7299   -0.4365 C   0  0  0  0  0  0  0  0  0  8  0  0
    1.2989   -1.4767    0.5031 O   0  0  0  0  0  0  0  0  0  9  0  0
    2.1330    0.3493   -0.6957 N   0  0  0  0  0  0  0  0  0 10  0  0
    3.0656    0.8260    0.2512 C   0  0  0  0  0  0  0  0  0 13  0  0
    2.7416    0.8087    1.6035 C   0  0  0  0  0  0  0  0  0 14  0  0
    1.7992    0.3972    1.9378 H   0  0  0  0  0  0  0  0  0 23  0  0
    3.6594    1.2705    2.5473 C   0  0  0  0  0  0  0  0  0 15  0  0
    3.4263    1.2609    3.5955 H   0  0  0  0  0  0  0  0  0 22  0  0
    4.8586    1.7929    2.0999 C   0  0  0  0  0  0  0  0  0 16  0  0
    5.7332    2.2616    3.0098 F   0  0  0  0  0  0  0  0  0 21  0  0
    5.1771    1.8371    0.7573 C   0  0  0  0  0  0  0  0  0 17  0  0
    6.1382    2.2389    0.4440 H   0  0  0  0  0  0  0  0  0 20  0  0
    4.2790    1.3599   -0.1626 C   0  0  0  0  0  0  0  0  0 18  0  0
    4.5104    1.3817   -1.2146 H   0  0  0  0  0  0  0  0  0 19  0  0
    1.8609    0.9358   -1.9086 C   0  0  0  0  0  0  0  0  0 11  0  0
    2.4645    1.8537   -2.4131 O   0  0  0  0  0  0  0  0  0 12  0  0
   -2.8878    1.8306   -2.5466 H   0  0  0  0  0  0  0  0  0 46  0  0
   -2.9978    2.0117   -0.8139 H   0  0  0  0  0  0  0  0  0 47  0  0
  1  2  1  0
  2  3  2  0
  2  4  1  0
  4  5  1  0
  4  6  1  0
  4  7  1  0
  7  8  1  6
  7  9  1  0
  9 10  1  0
 10 11  1  0
 11 12  2  0
 11 13  1  0
 13 14  1  0
 13 15  1  0
 13 16  1  0
 16 17  1  0
 17 18  4  0
 18 19  1  0
 18 20  4  0
 20 21  1  0
 20 22  4  0
 22 23  1  0
 22 24  4  0
 24 25  1  0
 24 26  4  0
 26 27  1  0
 16 28  1  0
 16 29  1  0
 10 30  1  0
  9 31  1  0
 31 32  2  0
 31 33  1  0
 33 34  1  0
 34 35  4  0
 35 36  1  0
 35 37  4  0
 37 38  1  0
 37 39  4  0
 39 40  1  0
 39 41  4  0
 41 42  1  0
 41 43  4  0
 43 44  1  0
 33 45  1  0
 45 46  2  0
  1 47  1  0
  1 48  1  0
 45  7  1  0
 26 17  4  0
 43 34  4  0
M  END
>  <sample_id>  (90)
train::NC(=O)CC1C(=O)N(c2ccc(F)cc2)C(=O)N1NC(=O)CCc1ccccc1__gen0002

>  <partition>  (90)
BAT_EXTERNAL_CONFIRM

>  <method>  (90)
BA_seed193

>  <candidate>  (90)
primary

$$$$
train::CCOC(CNC(=O)c1cccn2c(=O)c3c(C)c(C)sc3nc12)OCC__gen0000
     RDKit          3D

 50 52  0  0  0  0  0  0  0  0999 V2000
   -2.1841    1.6200   -3.8934 C   0  0  0  0  0  0  0  0  0  0  0  0
   -2.4621    1.1485   -2.4880 C   0  0  0  0  0  0  0  0  0  1  0  0
   -3.5347    0.9416   -2.3546 H   0  0  0  0  0  0  0  0  0  2  0  0
   -1.7183   -0.0088   -2.1439 O   0  0  0  0  0  0  0  0  0  3  0  0
   -2.3017   -1.2473   -2.4650 C   0  0  2  0  0  0  0  0  0  4  0  0
   -3.3799   -1.5359   -1.6541 O   0  0  0  0  0  0  0  0  0  5  0  0
   -3.1700   -1.9134   -0.2907 C   0  0  0  0  0  0  0  0  0  6  0  0
   -2.6566   -0.7743    0.5880 C   0  0  0  0  0  0  0  0  0  7  0  0
   -3.2433    0.1194    0.4018 H   0  0  0  0  0  0  0  0  0  8  0  0
   -2.7515   -1.0587    1.6278 H   0  0  0  0  0  0  0  0  0  9  0  0
   -1.6164   -0.5477    0.3773 H   0  0  0  0  0  0  0  0  0 10  0  0
   -2.5200   -2.7832   -0.2315 H   0  0  0  0  0  0  0  0  0 11  0  0
   -4.1713   -2.2003    0.0426 H   0  0  0  0  0  0  0  0  0 12  0  0
   -1.1476   -2.2737   -2.4835 C   0  0  0  0  0  0  0  0  0 13  0  0
   -0.2392   -2.0681   -1.4118 N   0  0  0  0  0  0  0  0  0 14  0  0
    0.2366   -3.0461   -0.6283 C   0  0  0  0  0  0  0  0  0 15  0  0
   -0.0810   -4.2182   -0.7686 O   0  0  0  0  0  0  0  0  0 16  0  0
    1.2192   -2.6477    0.4170 C   0  0  0  0  0  0  0  0  0 17  0  0
    1.8924   -3.6552    1.0737 C   0  0  0  0  0  0  0  0  0 18  0  0
    1.6751   -4.6754    0.7728 H   0  0  0  0  0  0  0  0  0 41  0  0
    2.8150   -3.3887    2.0861 C   0  0  0  0  0  0  0  0  0 19  0  0
    3.3403   -4.1840    2.5726 H   0  0  0  0  0  0  0  0  0 40  0  0
    3.0523   -2.0949    2.4318 C   0  0  0  0  0  0  0  0  0 20  0  0
    3.7374   -1.7748    3.1998 H   0  0  0  0  0  0  0  0  0 39  0  0
    2.3887   -1.0633    1.8286 N   0  0  0  0  0  0  0  0  0 21  0  0
    1.4578   -1.3034    0.8136 C   0  0  0  0  0  0  0  0  0 22  0  0
    0.8214   -0.3061    0.2235 N   0  0  0  0  0  0  0  0  0 23  0  0
    1.0565    0.9190    0.6659 C   0  0  0  0  0  0  0  0  0 24  0  0
    1.9467    1.2790    1.6665 C   0  0  0  0  0  0  0  0  0 25  0  0
    2.6974    0.2369    2.3140 C   0  0  0  0  0  0  0  0  0 26  0  0
    3.5194    0.3852    3.1862 O   0  0  0  0  0  0  0  0  0 27  0  0
    1.9855    2.6842    1.8998 C   0  0  0  0  0  0  0  0  0 28  0  0
    2.8502    3.3675    2.9103 C   0  0  0  0  0  0  0  0  0 35  0  0
    2.2460    3.9378    3.6109 H   0  0  0  0  0  0  0  0  0 36  0  0
    3.5308    4.0575    2.4213 H   0  0  0  0  0  0  0  0  0 37  0  0
    3.4292    2.6238    3.4525 H   0  0  0  0  0  0  0  0  0 38  0  0
    1.1222    3.3730    1.0874 C   0  0  0  0  0  0  0  0  0 29  0  0
    0.8788    4.8244    1.0437 C   0  0  0  0  0  0  0  0  0 31  0  0
    0.1866    5.0745    0.2401 H   0  0  0  0  0  0  0  0  0 32  0  0
    0.4636    5.1690    1.9967 H   0  0  0  0  0  0  0  0  0 33  0  0
    1.8159    5.3657    0.8804 H   0  0  0  0  0  0  0  0  0 34  0  0
    0.2474    2.3139    0.0088 S   0  0  0  0  0  0  0  0  0 30  0  0
    0.0378   -1.1133   -1.2059 H   0  0  0  0  0  0  0  0  0 42  0  0
   -1.5598   -3.2869   -2.4028 H   0  0  0  0  0  0  0  0  0 43  0  0
   -0.6266   -2.1923   -3.4424 H   0  0  0  0  0  0  0  0  0 44  0  0
   -2.7715   -1.2228   -3.4761 H   0  0  0  0  0  0  0  0  0 45  0  0
   -2.1556    1.9005   -1.7617 H   0  0  0  0  0  0  0  0  0 46  0  0
   -1.1208    1.7413   -4.0393 H   0  0  0  0  0  0  0  0  0 47  0  0
   -2.5663    0.9210   -4.6351 H   0  0  0  0  0  0  0  0  0 48  0  0
   -2.6718    2.5811   -4.0646 H   0  0  0  0  0  0  0  0  0 49  0  0
  1  2  1  0
  2  3  1  0
  2  4  1  0
  4  5  1  0
  5  6  1  0
  6  7  1  0
  7  8  1  0
  8  9  1  0
  8 10  1  0
  8 11  1  0
  7 12  1  0
  7 13  1  0
  5 14  1  0
 14 15  1  0
 15 16  1  0
 16 17  2  0
 16 18  1  0
 18 19  4  0
 19 20  1  0
 19 21  4  0
 21 22  1  0
 21 23  4  0
 23 24  1  0
 23 25  4  0
 25 26  4  0
 26 27  4  0
 27 28  4  0
 28 29  4  0
 29 30  4  0
 30 31  2  0
 29 32  4  0
 32 33  1  0
 33 34  1  0
 33 35  1  0
 33 36  1  0
 32 37  4  0
 37 38  1  0
 38 39  1  0
 38 40  1  0
 38 41  1  0
 37 42  4  0
 15 43  1  0
 14 44  1  0
 14 45  1  0
  5 46  1  6
  2 47  1  0
  1 48  1  0
  1 49  1  0
  1 50  1  0
 26 18  4  0
 42 28  4  0
 30 25  4  0
M  END
>  <sample_id>  (91)
train::CCOC(CNC(=O)c1cccn2c(=O)c3c(C)c(C)sc3nc12)OCC__gen0000

>  <partition>  (91)
BAT_EXTERNAL_CONFIRM

>  <method>  (91)
BA_seed193

>  <candidate>  (91)
primary

$$$$
train::CCOC(CNC(=O)c1cccn2c(=O)c3c(C)c(C)sc3nc12)OCC__gen0001
     RDKit          3D

 50 52  0  0  0  0  0  0  0  0999 V2000
    0.6029    3.9961   -1.1873 C   0  0  0  0  0  0  0  0  0  0  0  0
    0.8274    2.5031   -1.3764 C   0  0  0  0  0  0  0  0  0  1  0  0
    1.3252    2.0998   -0.4892 H   0  0  0  0  0  0  0  0  0  2  0  0
    1.6326    2.3253   -2.5168 O   0  0  0  0  0  0  0  0  0  3  0  0
    1.8428    1.0297   -2.9896 C   0  0  2  0  0  0  0  0  0  4  0  0
    0.6904    0.2220   -2.9901 O   0  0  0  0  0  0  0  0  0  5  0  0
   -0.2880    0.6153   -3.9211 C   0  0  0  0  0  0  0  0  0  6  0  0
   -1.5097   -0.2700   -3.7760 C   0  0  0  0  0  0  0  0  0  7  0  0
   -2.2085   -0.0678   -4.5902 H   0  0  0  0  0  0  0  0  0  8  0  0
   -1.2278   -1.3165   -3.7906 H   0  0  0  0  0  0  0  0  0  9  0  0
   -2.0060   -0.0638   -2.8318 H   0  0  0  0  0  0  0  0  0 10  0  0
    0.1270    0.5263   -4.9341 H   0  0  0  0  0  0  0  0  0 11  0  0
   -0.5620    1.6631   -3.7596 H   0  0  0  0  0  0  0  0  0 12  0  0
    2.9322    0.2551   -2.2187 C   0  0  0  0  0  0  0  0  0 13  0  0
    2.5087   -0.0658   -0.8808 N   0  0  0  0  0  0  0  0  0 14  0  0
    3.0988    0.4724    0.1980 C   0  0  0  0  0  0  0  0  0 15  0  0
    4.1094    1.1465    0.1367 O   0  0  0  0  0  0  0  0  0 16  0  0
    2.4572    0.1873    1.5231 C   0  0  0  0  0  0  0  0  0 17  0  0
    3.1739    0.5639    2.6386 C   0  0  0  0  0  0  0  0  0 18  0  0
    4.1577    0.9837    2.4753 H   0  0  0  0  0  0  0  0  0 41  0  0
    2.6508    0.3796    3.9204 C   0  0  0  0  0  0  0  0  0 19  0  0
    3.2266    0.6598    4.7909 H   0  0  0  0  0  0  0  0  0 40  0  0
    1.4032   -0.1583    4.0538 C   0  0  0  0  0  0  0  0  0 20  0  0
    0.9279   -0.3295    5.0075 H   0  0  0  0  0  0  0  0  0 39  0  0
    0.6770   -0.5154    2.9743 N   0  0  0  0  0  0  0  0  0 21  0  0
    1.1628   -0.3610    1.6686 C   0  0  0  0  0  0  0  0  0 22  0  0
    0.4179   -0.7130    0.6214 N   0  0  0  0  0  0  0  0  0 23  0  0
   -0.7816   -1.2174    0.8462 C   0  0  0  0  0  0  0  0  0 24  0  0
   -1.3704   -1.4245    2.0963 C   0  0  0  0  0  0  0  0  0 25  0  0
   -0.6293   -1.0659    3.2585 C   0  0  0  0  0  0  0  0  0 26  0  0
   -0.9905   -1.1641    4.4104 O   0  0  0  0  0  0  0  0  0 27  0  0
   -2.6785   -1.9744    1.9916 C   0  0  0  0  0  0  0  0  0 28  0  0
   -3.5501   -2.3099    3.1540 C   0  0  0  0  0  0  0  0  0 35  0  0
   -3.0202   -2.0715    4.0810 H   0  0  0  0  0  0  0  0  0 36  0  0
   -3.8009   -3.3734    3.1624 H   0  0  0  0  0  0  0  0  0 37  0  0
   -4.4779   -1.7499    3.1163 H   0  0  0  0  0  0  0  0  0 38  0  0
   -3.0415   -2.1849    0.6972 C   0  0  0  0  0  0  0  0  0 29  0  0
   -4.3329   -2.7569    0.2232 C   0  0  0  0  0  0  0  0  0 31  0  0
   -4.4881   -3.7564    0.6326 H   0  0  0  0  0  0  0  0  0 32  0  0
   -5.1630   -2.1316    0.5357 H   0  0  0  0  0  0  0  0  0 33  0  0
   -4.3244   -2.8286   -0.8580 H   0  0  0  0  0  0  0  0  0 34  0  0
   -1.8270   -1.7191   -0.4485 S   0  0  0  0  0  0  0  0  0 30  0  0
    1.6218   -0.5379   -0.7723 H   0  0  0  0  0  0  0  0  0 42  0  0
    3.8238    0.8851   -2.1518 H   0  0  0  0  0  0  0  0  0 43  0  0
    3.1671   -0.6569   -2.7647 H   0  0  0  0  0  0  0  0  0 44  0  0
    2.1970    1.1744   -4.0345 H   0  0  0  0  0  0  0  0  0 45  0  0
   -0.1398    1.9962   -1.4988 H   0  0  0  0  0  0  0  0  0 46  0  0
    1.5607    4.5004   -1.0425 H   0  0  0  0  0  0  0  0  0 47  0  0
    0.1239    4.4216   -2.0724 H   0  0  0  0  0  0  0  0  0 48  0  0
   -0.0285    4.1777   -0.3182 H   0  0  0  0  0  0  0  0  0 49  0  0
  1  2  1  0
  2  3  1  0
  2  4  1  0
  4  5  1  0
  5  6  1  0
  6  7  1  0
  7  8  1  0
  8  9  1  0
  8 10  1  0
  8 11  1  0
  7 12  1  0
  7 13  1  0
  5 14  1  0
 14 15  1  0
 15 16  1  0
 16 17  2  0
 16 18  1  0
 18 19  4  0
 19 20  1  0
 19 21  4  0
 21 22  1  0
 21 23  4  0
 23 24  1  0
 23 25  4  0
 25 26  4  0
 26 27  4  0
 27 28  4  0
 28 29  4  0
 29 30  4  0
 30 31  2  0
 29 32  4  0
 32 33  1  0
 33 34  1  0
 33 35  1  0
 33 36  1  0
 32 37  4  0
 37 38  1  0
 38 39  1  0
 38 40  1  0
 38 41  1  0
 37 42  4  0
 15 43  1  0
 14 44  1  0
 14 45  1  0
  5 46  1  6
  2 47  1  0
  1 48  1  0
  1 49  1  0
  1 50  1  0
 26 18  4  0
 42 28  4  0
 30 25  4  0
M  END
>  <sample_id>  (92)
train::CCOC(CNC(=O)c1cccn2c(=O)c3c(C)c(C)sc3nc12)OCC__gen0001

>  <partition>  (92)
BAT_EXTERNAL_CONFIRM

>  <method>  (92)
BA_seed193

>  <candidate>  (92)
primary

$$$$
train::CCOC(CNC(=O)c1cccn2c(=O)c3c(C)c(C)sc3nc12)OCC__gen0002
     RDKit          3D

 50 52  0  0  0  0  0  0  0  0999 V2000
   -0.1222   -3.5652   -1.9516 C   0  0  0  0  0  0  0  0  0  0  0  0
    1.0073   -3.4362   -0.9564 C   0  0  0  0  0  0  0  0  0  1  0  0
    1.2929   -2.3708   -0.8570 H   0  0  0  0  0  0  0  0  0  2  0  0
    0.6540   -3.9874    0.2928 O   0  0  0  0  0  0  0  0  0  3  0  0
    0.6397   -3.1519    1.4214 C   0  0  2  0  0  0  0  0  0  4  0  0
   -0.2283   -2.0803    1.3280 O   0  0  0  0  0  0  0  0  0  5  0  0
   -1.6170   -2.3946    1.4115 C   0  0  0  0  0  0  0  0  0  6  0  0
   -2.3734   -1.0927    1.4815 C   0  0  0  0  0  0  0  0  0  7  0  0
   -2.1561   -0.4708    0.6076 H   0  0  0  0  0  0  0  0  0  8  0  0
   -2.0783   -0.5413    2.3645 H   0  0  0  0  0  0  0  0  0  9  0  0
   -3.4467   -1.2787    1.5174 H   0  0  0  0  0  0  0  0  0 10  0  0
   -1.7938   -3.0058    2.3003 H   0  0  0  0  0  0  0  0  0 11  0  0
   -1.8934   -2.9733    0.5202 H   0  0  0  0  0  0  0  0  0 12  0  0
    2.0687   -2.6148    1.7469 C   0  0  0  0  0  0  0  0  0 13  0  0
    2.1653   -1.1886    1.4874 N   0  0  0  0  0  0  0  0  0 14  0  0
    2.1893   -0.3075    2.5012 C   0  0  0  0  0  0  0  0  0 15  0  0
    2.4642   -0.6281    3.6469 O   0  0  0  0  0  0  0  0  0 16  0  0
    1.8855    1.1024    2.1657 C   0  0  0  0  0  0  0  0  0 17  0  0
    2.3054    2.0740    3.0553 C   0  0  0  0  0  0  0  0  0 18  0  0
    2.8668    1.7452    3.9306 H   0  0  0  0  0  0  0  0  0 41  0  0
    2.0052    3.4269    2.8494 C   0  0  0  0  0  0  0  0  0 19  0  0
    2.3217    4.1668    3.5592 H   0  0  0  0  0  0  0  0  0 40  0  0
    1.2487    3.7906    1.7850 C   0  0  0  0  0  0  0  0  0 20  0  0
    0.9540    4.7923    1.5607 H   0  0  0  0  0  0  0  0  0 39  0  0
    0.8023    2.8391    0.8736 N   0  0  0  0  0  0  0  0  0 21  0  0
    1.1198    1.5012    1.0439 C   0  0  0  0  0  0  0  0  0 22  0  0
    0.7232    0.6021    0.1465 N   0  0  0  0  0  0  0  0  0 23  0  0
   -0.0308    1.0180   -0.8493 C   0  0  0  0  0  0  0  0  0 24  0  0
   -0.4013    2.3273   -1.1123 C   0  0  0  0  0  0  0  0  0 25  0  0
    0.0267    3.3400   -0.2033 C   0  0  0  0  0  0  0  0  0 26  0  0
   -0.2240    4.5281   -0.2684 O   0  0  0  0  0  0  0  0  0 27  0  0
   -1.2126    2.4466   -2.2824 C   0  0  0  0  0  0  0  0  0 28  0  0
   -1.7559    3.7236   -2.8100 C   0  0  0  0  0  0  0  0  0 35  0  0
   -1.3062    3.9864   -3.7659 H   0  0  0  0  0  0  0  0  0 36  0  0
   -2.8311    3.6517   -2.9632 H   0  0  0  0  0  0  0  0  0 37  0  0
   -1.5471    4.5324   -2.1000 H   0  0  0  0  0  0  0  0  0 38  0  0
   -1.4198    1.2374   -2.8996 C   0  0  0  0  0  0  0  0  0 29  0  0
   -2.2049    0.9723   -4.1311 C   0  0  0  0  0  0  0  0  0 31  0  0
   -3.2486    1.2607   -3.9806 H   0  0  0  0  0  0  0  0  0 32  0  0
   -2.1642   -0.0828   -4.3718 H   0  0  0  0  0  0  0  0  0 33  0  0
   -1.8135    1.5605   -4.9553 H   0  0  0  0  0  0  0  0  0 34  0  0
   -0.6384   -0.0796   -2.0553 S   0  0  0  0  0  0  0  0  0 30  0  0
    1.7271   -0.8648    0.6323 H   0  0  0  0  0  0  0  0  0 42  0  0
    2.2795   -2.7586    2.8042 H   0  0  0  0  0  0  0  0  0 43  0  0
    2.7982   -3.1386    1.1382 H   0  0  0  0  0  0  0  0  0 44  0  0
    0.3129   -3.8506    2.2305 H   0  0  0  0  0  0  0  0  0 45  0  0
    1.8892   -3.9777   -1.3003 H   0  0  0  0  0  0  0  0  0 46  0  0
    0.1886   -3.1832   -2.9191 H   0  0  0  0  0  0  0  0  0 47  0  0
   -0.9990   -2.9991   -1.6250 H   0  0  0  0  0  0  0  0  0 48  0  0
   -0.4296   -4.6025   -2.0448 H   0  0  0  0  0  0  0  0  0 49  0  0
  1  2  1  0
  2  3  1  0
  2  4  1  0
  4  5  1  0
  5  6  1  0
  6  7  1  0
  7  8  1  0
  8  9  1  0
  8 10  1  0
  8 11  1  0
  7 12  1  0
  7 13  1  0
  5 14  1  0
 14 15  1  0
 15 16  1  0
 16 17  2  0
 16 18  1  0
 18 19  4  0
 19 20  1  0
 19 21  4  0
 21 22  1  0
 21 23  4  0
 23 24  1  0
 23 25  4  0
 25 26  4  0
 26 27  4  0
 27 28  4  0
 28 29  4  0
 29 30  4  0
 30 31  2  0
 29 32  4  0
 32 33  1  0
 33 34  1  0
 33 35  1  0
 33 36  1  0
 32 37  4  0
 37 38  1  0
 38 39  1  0
 38 40  1  0
 38 41  1  0
 37 42  4  0
 15 43  1  0
 14 44  1  0
 14 45  1  0
  5 46  1  1
  2 47  1  0
  1 48  1  0
  1 49  1  0
  1 50  1  0
 26 18  4  0
 42 28  4  0
 30 25  4  0
M  END
>  <sample_id>  (93)
train::CCOC(CNC(=O)c1cccn2c(=O)c3c(C)c(C)sc3nc12)OCC__gen0002

>  <partition>  (93)
BAT_EXTERNAL_CONFIRM

>  <method>  (93)
BA_seed193

>  <candidate>  (93)
primary

$$$$
train::CCN(CC)CCCNC(=O)c1cn(CC(C)C)c(=O)c2c1c1ccccc1n2C__gen0000
     RDKit          3D

 64 66  0  0  0  0  0  0  0  0999 V2000
   -0.9642    0.6786   -2.2658 C   0  0  0  0  0  0  0  0  0  0  0  0
   -0.7303    0.3705   -3.2878 H   0  0  0  0  0  0  0  0  0  1  0  0
   -1.8204    1.9388   -2.3082 C   0  0  0  0  0  0  0  0  0  2  0  0
   -2.1137    2.4285   -0.9674 N   0  0  0  0  0  0  0  0  0  3  0  0
   -1.3628    3.6318   -0.6181 C   0  0  0  0  0  0  0  0  0  4  0  0
   -0.3183    3.4533   -0.8511 H   0  0  0  0  0  0  0  0  0  5  0  0
   -1.8035    4.9237   -1.3330 C   0  0  0  0  0  0  0  0  0  6  0  0
   -2.8170    5.1711   -1.0943 H   0  0  0  0  0  0  0  0  0  7  0  0
   -1.1600    5.7385   -1.0057 H   0  0  0  0  0  0  0  0  0  8  0  0
   -1.6896    4.8130   -2.4052 H   0  0  0  0  0  0  0  0  0  9  0  0
   -1.4491    3.7791    0.4601 H   0  0  0  0  0  0  0  0  0 10  0  0
   -3.5250    2.5159   -0.6403 C   0  0  0  0  0  0  0  0  0 11  0  0
   -4.0750    3.0017   -1.4683 H   0  0  0  0  0  0  0  0  0 12  0  0
   -4.1549    1.1729   -0.3087 C   0  0  0  0  0  0  0  0  0 13  0  0
   -3.6151    0.5866    0.9988 C   0  0  0  0  0  0  0  0  0 14  0  0
   -2.2190    0.2649    0.8656 N   0  0  0  0  0  0  0  0  0 15  0  0
   -1.7179   -0.9589    1.1507 C   0  0  0  0  0  0  0  0  0 16  0  0
   -2.4132   -1.8493    1.6531 O   0  0  0  0  0  0  0  0  0 17  0  0
   -0.3265   -1.2017    0.7165 C   0  0  0  0  0  0  0  0  0 18  0  0
   -0.0163   -2.4361    0.2499 C   0  0  0  0  0  0  0  0  0 19  0  0
   -0.7686   -3.2060    0.2677 H   0  0  0  0  0  0  0  0  0 53  0  0
    1.1759   -2.7810   -0.2813 N   0  0  0  0  0  0  0  0  0 20  0  0
    1.4096   -4.1429   -0.7078 C   0  0  0  0  0  0  0  0  0 40  0  0
    0.6161   -4.4191   -1.4307 H   0  0  0  0  0  0  0  0  0 41  0  0
    2.3658   -4.1425   -1.2361 H   0  0  0  0  0  0  0  0  0 42  0  0
    1.4234   -5.1293    0.4690 C   0  0  1  0  0  0  0  0  0 43  0  0
    1.6827   -6.5430   -0.0504 C   0  0  0  0  0  0  0  0  0 44  0  0
    0.9049   -6.8416   -0.7563 H   0  0  0  0  0  0  0  0  0 45  0  0
    2.6343   -6.5829   -0.5738 H   0  0  0  0  0  0  0  0  0 46  0  0
    1.6867   -7.2341    0.7785 H   0  0  0  0  0  0  0  0  0 47  0  0
    2.5214   -4.7736    1.4726 C   0  0  0  0  0  0  0  0  0 48  0  0
    3.4797   -4.7907    0.9857 H   0  0  0  0  0  0  0  0  0 49  0  0
    2.3575   -3.7733    1.8863 H   0  0  0  0  0  0  0  0  0 50  0  0
    2.5148   -5.4825    2.2935 H   0  0  0  0  0  0  0  0  0 51  0  0
    0.4549   -5.0745    0.9522 H   0  0  0  0  0  0  0  0  0 52  0  0
    2.2312   -1.8827   -0.4405 C   0  0  0  0  0  0  0  0  0 21  0  0
    3.2762   -2.2249   -0.9740 O   0  0  0  0  0  0  0  0  0 22  0  0
    1.9490   -0.5774    0.1256 C   0  0  0  0  0  0  0  0  0 23  0  0
    0.7075   -0.2387    0.7239 C   0  0  0  0  0  0  0  0  0 24  0  0
    0.8915    1.0769    1.2381 C   0  0  0  0  0  0  0  0  0 25  0  0
    0.1186    1.9359    2.0204 C   0  0  0  0  0  0  0  0  0 26  0  0
   -0.8510    1.6204    2.3789 H   0  0  0  0  0  0  0  0  0 39  0  0
    0.6071    3.1759    2.3448 C   0  0  0  0  0  0  0  0  0 27  0  0
    0.0220    3.8569    2.9286 H   0  0  0  0  0  0  0  0  0 38  0  0
    1.8660    3.5996    1.8842 C   0  0  0  0  0  0  0  0  0 28  0  0
    2.2249    4.5825    2.1518 H   0  0  0  0  0  0  0  0  0 37  0  0
    2.6743    2.7570    1.1528 C   0  0  0  0  0  0  0  0  0 29  0  0
    3.6567    3.0586    0.8199 H   0  0  0  0  0  0  0  0  0 36  0  0
    2.1815    1.4841    0.8464 C   0  0  0  0  0  0  0  0  0 30  0  0
    2.7930    0.4871    0.1667 N   0  0  0  0  0  0  0  0  0 31  0  0
    4.1325    0.5384   -0.3792 C   0  0  0  0  0  0  0  0  0 32  0  0
    4.8562    0.7174    0.4113 H   0  0  0  0  0  0  0  0  0 33  0  0
    4.3526   -0.4062   -0.8623 H   0  0  0  0  0  0  0  0  0 34  0  0
    4.1892    1.3489   -1.1220 H   0  0  0  0  0  0  0  0  0 35  0  0
   -1.7090    0.9012    0.2587 H   0  0  0  0  0  0  0  0  0 54  0  0
   -4.1443   -0.3266    1.2593 H   0  0  0  0  0  0  0  0  0 55  0  0
   -3.7477    1.3270    1.7979 H   0  0  0  0  0  0  0  0  0 56  0  0
   -5.2335    1.3130   -0.2110 H   0  0  0  0  0  0  0  0  0 57  0  0
   -3.9864    0.4682   -1.1215 H   0  0  0  0  0  0  0  0  0 58  0  0
   -3.6307    3.1720    0.2194 H   0  0  0  0  0  0  0  0  0 59  0  0
   -2.7677    1.7009   -2.8275 H   0  0  0  0  0  0  0  0  0 60  0  0
   -1.3075    2.7052   -2.8942 H   0  0  0  0  0  0  0  0  0 61  0  0
   -0.0299    0.8564   -1.7357 H   0  0  0  0  0  0  0  0  0 62  0  0
   -1.4898   -0.1330   -1.7705 H   0  0  0  0  0  0  0  0  0 63  0  0
  1  2  1  0
  1  3  1  0
  3  4  1  0
  4  5  1  0
  5  6  1  0
  5  7  1  0
  7  8  1  0
  7  9  1  0
  7 10  1  0
  5 11  1  0
  4 12  1  0
 12 13  1  0
 12 14  1  0
 14 15  1  0
 15 16  1  0
 16 17  1  0
 17 18  2  0
 17 19  1  0
 19 20  4  0
 20 21  1  0
 20 22  4  0
 22 23  1  0
 23 24  1  0
 23 25  1  0
 23 26  1  0
 26 27  1  0
 27 28  1  0
 27 29  1  0
 27 30  1  0
 26 31  1  0
 31 32  1  0
 31 33  1  0
 31 34  1  0
 26 35  1  1
 22 36  4  0
 36 37  2  0
 36 38  4  0
 38 39  4  0
 39 40  4  0
 40 41  4  0
 41 42  1  0
 41 43  4  0
 43 44  1  0
 43 45  4  0
 45 46  1  0
 45 47  4  0
 47 48  1  0
 47 49  4  0
 49 50  4  0
 50 51  1  0
 51 52  1  0
 51 53  1  0
 51 54  1  0
 16 55  1  0
 15 56  1  0
 15 57  1  0
 14 58  1  0
 14 59  1  0
 12 60  1  0
  3 61  1  0
  3 62  1  0
  1 63  1  0
  1 64  1  0
 39 19  4  0
 49 40  4  0
 50 38  4  0
M  END
>  <sample_id>  (94)
train::CCN(CC)CCCNC(=O)c1cn(CC(C)C)c(=O)c2c1c1ccccc1n2C__gen0000

>  <partition>  (94)
BAT_EXTERNAL_CONFIRM

>  <method>  (94)
BA_seed193

>  <candidate>  (94)
primary

$$$$
train::CCN(CC)CCCNC(=O)c1cn(CC(C)C)c(=O)c2c1c1ccccc1n2C__gen0001
     RDKit          3D

 64 66  0  0  0  0  0  0  0  0999 V2000
   -1.4358    1.3081    2.5017 C   0  0  0  0  0  0  0  0  0  0  0  0
   -1.9084    1.9575    3.2396 H   0  0  0  0  0  0  0  0  0  1  0  0
   -1.7200   -0.1427    2.8625 C   0  0  0  0  0  0  0  0  0  2  0  0
   -1.2160   -1.0739    1.8590 N   0  0  0  0  0  0  0  0  0  3  0  0
    0.2234   -1.0748    1.6836 C   0  0  0  0  0  0  0  0  0  4  0  0
    0.4377   -1.7079    0.8340 H   0  0  0  0  0  0  0  0  0  5  0  0
    1.0477   -1.5463    2.8928 C   0  0  0  0  0  0  0  0  0  6  0  0
    0.8310   -2.5813    3.1326 H   0  0  0  0  0  0  0  0  0  7  0  0
    0.8424   -0.9444    3.7756 H   0  0  0  0  0  0  0  0  0  8  0  0
    2.0988   -1.4519    2.6526 H   0  0  0  0  0  0  0  0  0  9  0  0
    0.5203   -0.0435    1.4348 H   0  0  0  0  0  0  0  0  0 10  0  0
   -1.7889   -2.4057    1.9900 C   0  0  0  0  0  0  0  0  0 11  0  0
   -1.1358   -3.1107    1.4892 H   0  0  0  0  0  0  0  0  0 12  0  0
   -3.1795   -2.4921    1.3371 C   0  0  0  0  0  0  0  0  0 13  0  0
   -3.1040   -2.5442   -0.1969 C   0  0  0  0  0  0  0  0  0 14  0  0
   -2.2766   -1.4757   -0.7067 N   0  0  0  0  0  0  0  0  0 15  0  0
   -1.2120   -1.7073   -1.4985 C   0  0  0  0  0  0  0  0  0 16  0  0
   -0.9627   -2.7949   -1.9830 O   0  0  0  0  0  0  0  0  0 17  0  0
   -0.2845   -0.5523   -1.6492 C   0  0  0  0  0  0  0  0  0 18  0  0
    1.0253   -0.8707   -1.9079 C   0  0  0  0  0  0  0  0  0 19  0  0
    1.2746   -1.8942   -2.1379 H   0  0  0  0  0  0  0  0  0 53  0  0
    2.0472    0.0045   -1.8608 N   0  0  0  0  0  0  0  0  0 20  0  0
    3.3969   -0.4064   -2.1792 C   0  0  0  0  0  0  0  0  0 40  0  0
    3.3552   -1.2602   -2.8668 H   0  0  0  0  0  0  0  0  0 41  0  0
    3.8970    0.4435   -2.6579 H   0  0  0  0  0  0  0  0  0 42  0  0
    4.2140   -0.7969   -0.9159 C   0  0  1  0  0  0  0  0  0 43  0  0
    3.5824   -1.9972   -0.2091 C   0  0  0  0  0  0  0  0  0 44  0  0
    3.6148   -2.8723   -0.8525 H   0  0  0  0  0  0  0  0  0 45  0  0
    4.1237   -2.2160    0.7024 H   0  0  0  0  0  0  0  0  0 46  0  0
    2.5483   -1.7833    0.0534 H   0  0  0  0  0  0  0  0  0 47  0  0
    5.6422   -1.0976   -1.3158 C   0  0  0  0  0  0  0  0  0 48  0  0
    6.0841   -0.2390   -1.8205 H   0  0  0  0  0  0  0  0  0 49  0  0
    5.6739   -1.9557   -1.9841 H   0  0  0  0  0  0  0  0  0 50  0  0
    6.2452   -1.3335   -0.4374 H   0  0  0  0  0  0  0  0  0 51  0  0
    4.1993    0.0479   -0.2264 H   0  0  0  0  0  0  0  0  0 52  0  0
    1.8980    1.3481   -1.5004 C   0  0  0  0  0  0  0  0  0 21  0  0
    2.8597    2.0902   -1.3898 O   0  0  0  0  0  0  0  0  0 22  0  0
    0.5075    1.7145   -1.2821 C   0  0  0  0  0  0  0  0  0 23  0  0
   -0.5752    0.8194   -1.3872 C   0  0  0  0  0  0  0  0  0 24  0  0
   -1.7521    1.6203   -1.2888 C   0  0  0  0  0  0  0  0  0 25  0  0
   -3.1210    1.3784   -1.4489 C   0  0  0  0  0  0  0  0  0 26  0  0
   -3.4702    0.4064   -1.7630 H   0  0  0  0  0  0  0  0  0 39  0  0
   -4.0137    2.4146   -1.2639 C   0  0  0  0  0  0  0  0  0 27  0  0
   -5.0688    2.2289   -1.3880 H   0  0  0  0  0  0  0  0  0 38  0  0
   -3.5682    3.6856   -0.9292 C   0  0  0  0  0  0  0  0  0 28  0  0
   -4.2900    4.4713   -0.7726 H   0  0  0  0  0  0  0  0  0 37  0  0
   -2.2197    3.9730   -0.8174 C   0  0  0  0  0  0  0  0  0 29  0  0
   -1.8787    4.9634   -0.5670 H   0  0  0  0  0  0  0  0  0 36  0  0
   -1.3235    2.9258   -0.9893 C   0  0  0  0  0  0  0  0  0 30  0  0
    0.0454    2.9737   -1.0104 N   0  0  0  0  0  0  0  0  0 31  0  0
    0.8424    4.1455   -0.8081 C   0  0  0  0  0  0  0  0  0 32  0  0
    0.6042    4.9018   -1.5591 H   0  0  0  0  0  0  0  0  0 33  0  0
    1.8868    3.8621   -0.8847 H   0  0  0  0  0  0  0  0  0 34  0  0
    0.6483    4.5608    0.1836 H   0  0  0  0  0  0  0  0  0 35  0  0
   -2.2811   -0.6076   -0.1852 H   0  0  0  0  0  0  0  0  0 54  0  0
   -4.1086   -2.4715   -0.6269 H   0  0  0  0  0  0  0  0  0 55  0  0
   -2.6479   -3.4861   -0.5225 H   0  0  0  0  0  0  0  0  0 56  0  0
   -3.6771   -3.3967    1.6899 H   0  0  0  0  0  0  0  0  0 57  0  0
   -3.7708   -1.6279    1.6400 H   0  0  0  0  0  0  0  0  0 58  0  0
   -1.8757   -2.7133    3.0448 H   0  0  0  0  0  0  0  0  0 59  0  0
   -1.3206   -0.3773    3.8612 H   0  0  0  0  0  0  0  0  0 60  0  0
   -2.8099   -0.2653    2.9143 H   0  0  0  0  0  0  0  0  0 61  0  0
   -1.8488    1.5409    1.5299 H   0  0  0  0  0  0  0  0  0 62  0  0
   -0.3723    1.5320    2.4866 H   0  0  0  0  0  0  0  0  0 63  0  0
  1  2  1  0
  1  3  1  0
  3  4  1  0
  4  5  1  0
  5  6  1  0
  5  7  1  0
  7  8  1  0
  7  9  1  0
  7 10  1  0
  5 11  1  0
  4 12  1  0
 12 13  1  0
 12 14  1  0
 14 15  1  0
 15 16  1  0
 16 17  1  0
 17 18  2  0
 17 19  1  0
 19 20  4  0
 20 21  1  0
 20 22  4  0
 22 23  1  0
 23 24  1  0
 23 25  1  0
 23 26  1  0
 26 27  1  0
 27 28  1  0
 27 29  1  0
 27 30  1  0
 26 31  1  0
 31 32  1  0
 31 33  1  0
 31 34  1  0
 26 35  1  1
 22 36  4  0
 36 37  2  0
 36 38  4  0
 38 39  4  0
 39 40  4  0
 40 41  4  0
 41 42  1  0
 41 43  4  0
 43 44  1  0
 43 45  4  0
 45 46  1  0
 45 47  4  0
 47 48  1  0
 47 49  4  0
 49 50  4  0
 50 51  1  0
 51 52  1  0
 51 53  1  0
 51 54  1  0
 16 55  1  0
 15 56  1  0
 15 57  1  0
 14 58  1  0
 14 59  1  0
 12 60  1  0
  3 61  1  0
  3 62  1  0
  1 63  1  0
  1 64  1  0
 39 19  4  0
 49 40  4  0
 50 38  4  0
M  END
>  <sample_id>  (95)
train::CCN(CC)CCCNC(=O)c1cn(CC(C)C)c(=O)c2c1c1ccccc1n2C__gen0001

>  <partition>  (95)
BAT_EXTERNAL_CONFIRM

>  <method>  (95)
BA_seed193

>  <candidate>  (95)
primary

$$$$
train::CCN(CC)CCCNC(=O)c1cn(CC(C)C)c(=O)c2c1c1ccccc1n2C__gen0002
     RDKit          3D

 64 66  0  0  0  0  0  0  0  0999 V2000
    1.4635   -4.4544    1.6939 C   0  0  0  0  0  0  0  0  0  0  0  0
    2.4849   -4.1242    1.8999 H   0  0  0  0  0  0  0  0  0  1  0  0
    0.6784   -3.3564    0.9613 C   0  0  0  0  0  0  0  0  0  2  0  0
    1.1687   -2.9612   -0.3544 N   0  0  0  0  0  0  0  0  0  3  0  0
    2.5168   -2.3882   -0.3649 C   0  0  0  0  0  0  0  0  0  4  0  0
    2.7798   -2.1928   -1.4111 H   0  0  0  0  0  0  0  0  0  5  0  0
    2.5829   -1.0615    0.4003 C   0  0  0  0  0  0  0  0  0  6  0  0
    3.5944   -0.6568    0.3074 H   0  0  0  0  0  0  0  0  0  7  0  0
    2.3756   -1.2165    1.4624 H   0  0  0  0  0  0  0  0  0  8  0  0
    1.8793   -0.3444   -0.0038 H   0  0  0  0  0  0  0  0  0  9  0  0
    3.2528   -3.0889    0.0414 H   0  0  0  0  0  0  0  0  0 10  0  0
    0.9471   -3.9716   -1.3793 C   0  0  0  0  0  0  0  0  0 11  0  0
    1.6477   -3.7848   -2.1996 H   0  0  0  0  0  0  0  0  0 12  0  0
   -0.4789   -3.9324   -1.9392 C   0  0  0  0  0  0  0  0  0 13  0  0
   -0.7593   -2.6408   -2.7102 C   0  0  0  0  0  0  0  0  0 14  0  0
   -0.5873   -1.4891   -1.8474 N   0  0  0  0  0  0  0  0  0 15  0  0
   -1.1569   -0.2983   -2.1236 C   0  0  0  0  0  0  0  0  0 16  0  0
   -1.8506   -0.0842   -3.0975 O   0  0  0  0  0  0  0  0  0 17  0  0
   -0.7099    0.7630   -1.1750 C   0  0  0  0  0  0  0  0  0 18  0  0
   -0.2097    1.9294   -1.6933 C   0  0  0  0  0  0  0  0  0 19  0  0
   -0.2176    2.0740   -2.7719 H   0  0  0  0  0  0  0  0  0 53  0  0
    0.3618    2.9027   -0.9543 N   0  0  0  0  0  0  0  0  0 20  0  0
    0.8132    4.1126   -1.6201 C   0  0  0  0  0  0  0  0  0 40  0  0
    1.6044    4.5375   -0.9897 H   0  0  0  0  0  0  0  0  0 41  0  0
    1.2121    3.8466   -2.5957 H   0  0  0  0  0  0  0  0  0 42  0  0
   -0.3030    5.1743   -1.7815 C   0  0  1  0  0  0  0  0  0 43  0  0
   -1.4461    4.6713   -2.6436 C   0  0  0  0  0  0  0  0  0 44  0  0
   -1.9923    3.8763   -2.1375 H   0  0  0  0  0  0  0  0  0 45  0  0
   -2.1485    5.4730   -2.8458 H   0  0  0  0  0  0  0  0  0 46  0  0
   -1.0926    4.2799   -3.6039 H   0  0  0  0  0  0  0  0  0 47  0  0
   -0.8217    5.6486   -0.4372 C   0  0  0  0  0  0  0  0  0 48  0  0
   -1.3682    4.8480    0.0586 H   0  0  0  0  0  0  0  0  0 49  0  0
   -0.0044    5.9486    0.2093 H   0  0  0  0  0  0  0  0  0 50  0  0
   -1.5078    6.4924   -0.5579 H   0  0  0  0  0  0  0  0  0 51  0  0
    0.1818    6.0051   -2.3050 H   0  0  0  0  0  0  0  0  0 52  0  0
    0.5332    2.8374    0.4258 C   0  0  0  0  0  0  0  0  0 21  0  0
    1.1262    3.6995    1.0485 O   0  0  0  0  0  0  0  0  0 22  0  0
   -0.0642    1.6488    1.0058 C   0  0  0  0  0  0  0  0  0 23  0  0
   -0.6936    0.6459    0.2405 C   0  0  0  0  0  0  0  0  0 24  0  0
   -1.2276   -0.2839    1.1822 C   0  0  0  0  0  0  0  0  0 25  0  0
   -2.0255   -1.4316    1.0754 C   0  0  0  0  0  0  0  0  0 26  0  0
   -2.3692   -1.7552    0.1141 H   0  0  0  0  0  0  0  0  0 39  0  0
   -2.3789   -2.0988    2.2216 C   0  0  0  0  0  0  0  0  0 27  0  0
   -2.9986   -2.9714    2.1781 H   0  0  0  0  0  0  0  0  0 38  0  0
   -1.9495   -1.6574    3.4757 C   0  0  0  0  0  0  0  0  0 28  0  0
   -2.2404   -2.2013    4.3664 H   0  0  0  0  0  0  0  0  0 37  0  0
   -1.1798   -0.5209    3.6226 C   0  0  0  0  0  0  0  0  0 29  0  0
   -0.8679   -0.1573    4.5912 H   0  0  0  0  0  0  0  0  0 36  0  0
   -0.8288    0.1668    2.4628 C   0  0  0  0  0  0  0  0  0 30  0  0
   -0.1214    1.3343    2.3333 N   0  0  0  0  0  0  0  0  0 31  0  0
    0.4104    2.0996    3.4234 C   0  0  0  0  0  0  0  0  0 32  0  0
   -0.3932    2.4110    4.0964 H   0  0  0  0  0  0  0  0  0 33  0  0
    0.8990    2.9661    3.0113 H   0  0  0  0  0  0  0  0  0 34  0  0
    1.1320    1.4993    3.9921 H   0  0  0  0  0  0  0  0  0 35  0  0
    0.0442   -1.6431   -1.0955 H   0  0  0  0  0  0  0  0  0 54  0  0
   -1.7707   -2.6207   -3.1171 H   0  0  0  0  0  0  0  0  0 55  0  0
   -0.0677   -2.5733   -3.5648 H   0  0  0  0  0  0  0  0  0 56  0  0
   -1.1994   -4.0052   -1.1344 H   0  0  0  0  0  0  0  0  0 57  0  0
   -0.6207   -4.7755   -2.6093 H   0  0  0  0  0  0  0  0  0 58  0  0
    1.1590   -4.9720   -0.9979 H   0  0  0  0  0  0  0  0  0 59  0  0
   -0.3555   -3.6741    0.8344 H   0  0  0  0  0  0  0  0  0 60  0  0
    0.6733   -2.4539    1.5831 H   0  0  0  0  0  0  0  0  0 61  0  0
    0.9652   -4.6863    2.6340 H   0  0  0  0  0  0  0  0  0 62  0  0
    1.5201   -5.3636    1.1089 H   0  0  0  0  0  0  0  0  0 63  0  0
  1  2  1  0
  1  3  1  0
  3  4  1  0
  4  5  1  0
  5  6  1  0
  5  7  1  0
  7  8  1  0
  7  9  1  0
  7 10  1  0
  5 11  1  0
  4 12  1  0
 12 13  1  0
 12 14  1  0
 14 15  1  0
 15 16  1  0
 16 17  1  0
 17 18  2  0
 17 19  1  0
 19 20  4  0
 20 21  1  0
 20 22  4  0
 22 23  1  0
 23 24  1  0
 23 25  1  0
 23 26  1  0
 26 27  1  0
 27 28  1  0
 27 29  1  0
 27 30  1  0
 26 31  1  0
 31 32  1  0
 31 33  1  0
 31 34  1  0
 26 35  1  6
 22 36  4  0
 36 37  2  0
 36 38  4  0
 38 39  4  0
 39 40  4  0
 40 41  4  0
 41 42  1  0
 41 43  4  0
 43 44  1  0
 43 45  4  0
 45 46  1  0
 45 47  4  0
 47 48  1  0
 47 49  4  0
 49 50  4  0
 50 51  1  0
 51 52  1  0
 51 53  1  0
 51 54  1  0
 16 55  1  0
 15 56  1  0
 15 57  1  0
 14 58  1  0
 14 59  1  0
 12 60  1  0
  3 61  1  0
  3 62  1  0
  1 63  1  0
  1 64  1  0
 39 19  4  0
 49 40  4  0
 50 38  4  0
M  END
>  <sample_id>  (96)
train::CCN(CC)CCCNC(=O)c1cn(CC(C)C)c(=O)c2c1c1ccccc1n2C__gen0002

>  <partition>  (96)
BAT_EXTERNAL_CONFIRM

>  <method>  (96)
BA_seed193

>  <candidate>  (96)
primary

$$$$
train::COc1ccc(C(=O)N2CC3(CC(c4cccc(NC(=O)COc5ccc(Cl)cc5)c4)=NO3)C[C@@H]2C(N)=O)cc1__gen0000
     RDKit          3D

 67 71  0  0  0  0  0  0  0  0999 V2000
   -3.2338   -3.2809   -2.3968 C   0  0  0  0  0  0  0  0  0  0  0  0
   -3.3678   -4.2503   -2.8517 H   0  0  0  0  0  0  0  0  0  1  0  0
   -2.4336   -2.5185   -3.2876 O   0  0  0  0  0  0  0  0  0  2  0  0
   -2.1696   -1.2495   -3.0149 C   0  0  0  0  0  0  0  0  0  3  0  0
   -1.4195   -0.5573   -3.9871 C   0  0  0  0  0  0  0  0  0  4  0  0
   -1.1113   -1.0887   -4.8633 H   0  0  0  0  0  0  0  0  0 64  0  0
   -1.1012    0.7743   -3.8008 C   0  0  0  0  0  0  0  0  0  5  0  0
   -0.5454    1.3034   -4.5619 H   0  0  0  0  0  0  0  0  0 63  0  0
   -1.5232    1.4434   -2.6636 C   0  0  0  0  0  0  0  0  0  6  0  0
   -1.2520    2.8950   -2.4514 C   0  0  0  0  0  0  0  0  0 11  0  0
   -2.1416    3.7148   -2.3223 O   0  0  0  0  0  0  0  0  0 12  0  0
    0.0447    3.2725   -2.4373 N   0  0  0  0  0  0  0  0  0 13  0  0
    1.2316    2.4391   -2.4116 C   0  0  0  0  0  0  0  0  0 14  0  0
    1.8505    2.6494   -3.2815 H   0  0  0  0  0  0  0  0  0 15  0  0
    0.9831    1.3833   -2.3989 H   0  0  0  0  0  0  0  0  0 62  0  0
    1.9408    2.9093   -1.1514 C   0  0  1  0  0  0  0  0  0 16  0  0
    1.6640    4.4165   -1.1192 C   0  0  0  0  0  0  0  0  0 17  0  0
    1.5605    4.7883   -0.1074 H   0  0  0  0  0  0  0  0  0 18  0  0
    2.4895    4.9403   -1.6080 H   0  0  0  0  0  0  0  0  0 26  0  0
    0.3816    4.6058   -1.9456 C   0  0  1  0  0  0  0  0  0 19  0  0
   -0.4542    4.9854   -1.3393 H   0  0  0  0  0  0  0  0  0 20  0  0
    0.5711    5.5431   -3.1475 C   0  0  0  0  0  0  0  0  0 21  0  0
    1.6359    5.9535   -3.5353 O   0  0  0  0  0  0  0  0  0 22  0  0
   -0.6215    5.8546   -3.7166 N   0  0  0  0  0  0  0  0  0 23  0  0
   -1.4548    5.3541   -3.4327 H   0  0  0  0  0  0  0  0  0 24  0  0
   -0.6144    6.3216   -4.6096 H   0  0  0  0  0  0  0  0  0 25  0  0
    1.4840    2.0574    0.0519 C   0  0  0  0  0  0  0  0  0 27  0  0
    0.9197    1.1772   -0.2528 H   0  0  0  0  0  0  0  0  0 60  0  0
    0.8789    2.6291    0.7546 H   0  0  0  0  0  0  0  0  0 61  0  0
    2.8077    1.6456    0.6361 C   0  0  0  0  0  0  0  0  0 28  0  0
    2.9596    0.8083    1.7892 C   0  0  0  0  0  0  0  0  0 31  0  0
    1.8835    0.0509    2.2626 C   0  0  0  0  0  0  0  0  0 32  0  0
    0.9302    0.0737    1.7457 H   0  0  0  0  0  0  0  0  0 59  0  0
    2.0266   -0.7788    3.3590 C   0  0  0  0  0  0  0  0  0 33  0  0
    0.9407   -1.5486    3.7404 N   0  0  0  0  0  0  0  0  0 40  0  0
    0.8920   -2.5473    4.6729 C   0  0  0  0  0  0  0  0  0 41  0  0
    1.8366   -2.9663    5.3140 O   0  0  0  0  0  0  0  0  0 42  0  0
   -0.4772   -3.1913    4.8688 C   0  0  0  0  0  0  0  0  0 43  0  0
   -1.4521   -2.7821    3.9546 O   0  0  0  0  0  0  0  0  0 44  0  0
   -1.5759   -3.4795    2.7798 C   0  0  0  0  0  0  0  0  0 45  0  0
   -0.6090   -4.3409    2.2553 C   0  0  0  0  0  0  0  0  0 46  0  0
    0.3529   -4.4553    2.7338 H   0  0  0  0  0  0  0  0  0 55  0  0
   -0.8153   -4.9912    1.0577 C   0  0  0  0  0  0  0  0  0 47  0  0
   -0.0627   -5.6616    0.6475 H   0  0  0  0  0  0  0  0  0 54  0  0
   -2.0338   -4.8566    0.4185 C   0  0  0  0  0  0  0  0  0 48  0  0
   -2.3402   -5.7303   -1.0479 Cl  0  0  0  0  0  0  0  0  0 53  0  0
   -3.0059   -4.0072    0.9239 C   0  0  0  0  0  0  0  0  0 49  0  0
   -3.9733   -3.9028    0.4407 H   0  0  0  0  0  0  0  0  0 52  0  0
   -2.7820   -3.3375    2.1072 C   0  0  0  0  0  0  0  0  0 50  0  0
   -3.5382   -2.7177    2.5414 H   0  0  0  0  0  0  0  0  0 51  0  0
   -0.3552   -4.2828    4.8796 H   0  0  0  0  0  0  0  0  0 56  0  0
   -0.8624   -2.8773    5.8350 H   0  0  0  0  0  0  0  0  0 57  0  0
    0.0818   -1.3269    3.2407 H   0  0  0  0  0  0  0  0  0 58  0  0
    3.2507   -0.8351    4.0196 C   0  0  0  0  0  0  0  0  0 34  0  0
    3.3724   -1.4758    4.8777 H   0  0  0  0  0  0  0  0  0 39  0  0
    4.3163   -0.0587    3.5799 C   0  0  0  0  0  0  0  0  0 35  0  0
    5.2711   -0.1150    4.0931 H   0  0  0  0  0  0  0  0  0 38  0  0
    4.1814    0.7543    2.4679 C   0  0  0  0  0  0  0  0  0 36  0  0
    5.0155    1.3512    2.1152 H   0  0  0  0  0  0  0  0  0 37  0  0
    3.7795    2.0996   -0.0693 N   0  0  0  0  0  0  0  0  0 29  0  0
    3.3602    2.7860   -1.1455 O   0  0  0  0  0  0  0  0  0 30  0  0
   -2.2694    0.7648   -1.7098 C   0  0  0  0  0  0  0  0  0  7  0  0
   -2.6061    1.2934   -0.8306 H   0  0  0  0  0  0  0  0  0 10  0  0
   -2.5791   -0.5624   -1.8678 C   0  0  0  0  0  0  0  0  0  8  0  0
   -3.1508   -1.0794   -1.1131 H   0  0  0  0  0  0  0  0  0  9  0  0
   -2.7474   -3.3805   -1.4185 H   0  0  0  0  0  0  0  0  0 65  0  0
   -4.2150   -2.8050   -2.2657 H   0  0  0  0  0  0  0  0  0 66  0  0
  1  2  1  0
  1  3  1  0
  3  4  1  0
  4  5  4  0
  5  6  1  0
  5  7  4  0
  7  8  1  0
  7  9  4  0
  9 10  1  0
 10 11  2  0
 10 12  1  0
 12 13  1  0
 13 14  1  0
 13 15  1  0
 13 16  1  0
 16 17  1  0
 17 18  1  0
 17 19  1  0
 17 20  1  0
 20 21  1  6
 20 22  1  0
 22 23  2  0
 22 24  1  0
 24 25  1  0
 24 26  1  0
 16 27  1  0
 27 28  1  0
 27 29  1  0
 27 30  1  0
 30 31  1  0
 31 32  4  0
 32 33  1  0
 32 34  4  0
 34 35  1  0
 35 36  1  0
 36 37  2  0
 36 38  1  0
 38 39  1  0
 39 40  1  0
 40 41  4  0
 41 42  1  0
 41 43  4  0
 43 44  1  0
 43 45  4  0
 45 46  1  0
 45 47  4  0
 47 48  1  0
 47 49  4  0
 49 50  1  0
 38 51  1  0
 38 52  1  0
 35 53  1  0
 34 54  4  0
 54 55  1  0
 54 56  4  0
 56 57  1  0
 56 58  4  0
 58 59  1  0
 30 60  2  0
 60 61  1  0
  9 62  4  0
 62 63  1  0
 62 64  4  0
 64 65  1  0
  1 66  1  0
  1 67  1  0
 64  4  4  0
 20 12  1  0
 58 31  4  0
 16 61  1  6
 49 40  4  0
M  END
>  <sample_id>  (97)
train::COc1ccc(C(=O)N2CC3(CC(c4cccc(NC(=O)COc5ccc(Cl)cc5)c4)=NO3)C[C@@H]2C(N)=O)cc1__gen0000

>  <partition>  (97)
BAT_EXTERNAL_CONFIRM

>  <method>  (97)
BA_seed193

>  <candidate>  (97)
primary

$$$$
train::COc1ccc(C(=O)N2CC3(CC(c4cccc(NC(=O)COc5ccc(Cl)cc5)c4)=NO3)C[C@@H]2C(N)=O)cc1__gen0001
     RDKit          3D

 67 71  0  0  0  0  0  0  0  0999 V2000
   -2.3350   -5.3644    6.1961 C   0  0  0  0  0  0  0  0  0  0  0  0
   -2.5233   -5.6632    5.1609 H   0  0  0  0  0  0  0  0  0  1  0  0
   -2.3652   -3.9759    6.3621 O   0  0  0  0  0  0  0  0  0  2  0  0
   -1.4496   -3.2207    5.6964 C   0  0  0  0  0  0  0  0  0  3  0  0
   -1.5152   -1.8486    5.9173 C   0  0  0  0  0  0  0  0  0  4  0  0
   -2.2561   -1.4724    6.6042 H   0  0  0  0  0  0  0  0  0 64  0  0
   -0.6468   -0.9785    5.3087 C   0  0  0  0  0  0  0  0  0  5  0  0
   -0.6870    0.0703    5.5022 H   0  0  0  0  0  0  0  0  0 63  0  0
    0.3085   -1.4768    4.4033 C   0  0  0  0  0  0  0  0  0  6  0  0
    1.3322   -0.6107    3.7491 C   0  0  0  0  0  0  0  0  0 11  0  0
    2.5236   -0.8492    3.8509 O   0  0  0  0  0  0  0  0  0 12  0  0
    0.8720    0.4349    3.0205 N   0  0  0  0  0  0  0  0  0 13  0  0
   -0.5088    0.7076    2.7209 C   0  0  0  0  0  0  0  0  0 14  0  0
   -1.0411    1.1143    3.5934 H   0  0  0  0  0  0  0  0  0 15  0  0
   -0.9996   -0.2192    2.4054 H   0  0  0  0  0  0  0  0  0 62  0  0
   -0.4460    1.8214    1.6220 C   0  0  1  0  0  0  0  0  0 16  0  0
    0.8449    2.5404    1.9856 C   0  0  0  0  0  0  0  0  0 17  0  0
    0.6551    3.2615    2.7839 H   0  0  0  0  0  0  0  0  0 18  0  0
    1.2677    3.0788    1.1341 H   0  0  0  0  0  0  0  0  0 26  0  0
    1.7764    1.4298    2.4536 C   0  0  2  0  0  0  0  0  0 19  0  0
    2.4867    1.7462    3.2268 H   0  0  0  0  0  0  0  0  0 20  0  0
    2.5920    0.9248    1.2330 C   0  0  0  0  0  0  0  0  0 21  0  0
    2.4614    1.3524    0.1001 O   0  0  0  0  0  0  0  0  0 22  0  0
    3.5054   -0.0086    1.5373 N   0  0  0  0  0  0  0  0  0 23  0  0
    3.4872   -0.4347    2.4630 H   0  0  0  0  0  0  0  0  0 24  0  0
    4.0274   -0.4331    0.7937 H   0  0  0  0  0  0  0  0  0 25  0  0
   -0.5016    1.2782    0.1946 C   0  0  0  0  0  0  0  0  0 27  0  0
    0.3725    1.5920   -0.3852 H   0  0  0  0  0  0  0  0  0 60  0  0
   -0.6077    0.1976    0.1389 H   0  0  0  0  0  0  0  0  0 61  0  0
   -1.7254    2.0000   -0.3203 C   0  0  0  0  0  0  0  0  0 28  0  0
   -2.2167    1.8949   -1.6804 C   0  0  0  0  0  0  0  0  0 31  0  0
   -1.6192    1.0091   -2.5641 C   0  0  0  0  0  0  0  0  0 32  0  0
   -0.8058    0.3856   -2.1937 H   0  0  0  0  0  0  0  0  0 59  0  0
   -2.0281    0.9263   -3.8765 C   0  0  0  0  0  0  0  0  0 33  0  0
   -1.3754    0.0418   -4.7748 N   0  0  0  0  0  0  0  0  0 40  0  0
   -0.6130   -1.0464   -4.4864 C   0  0  0  0  0  0  0  0  0 41  0  0
   -0.4667   -1.5275   -3.3326 O   0  0  0  0  0  0  0  0  0 42  0  0
    0.1380   -1.5785   -5.6823 C   0  0  0  0  0  0  0  0  0 43  0  0
    0.9199   -0.5421   -6.2387 O   0  0  0  0  0  0  0  0  0 44  0  0
    1.7669    0.1685   -5.4302 C   0  0  0  0  0  0  0  0  0 45  0  0
    2.0807   -0.1714   -4.1020 C   0  0  0  0  0  0  0  0  0 46  0  0
    1.7101   -1.0725   -3.6652 H   0  0  0  0  0  0  0  0  0 55  0  0
    2.8381    0.6768   -3.3260 C   0  0  0  0  0  0  0  0  0 47  0  0
    3.0377    0.4541   -2.2922 H   0  0  0  0  0  0  0  0  0 54  0  0
    3.3198    1.8558   -3.8702 C   0  0  0  0  0  0  0  0  0 48  0  0
    4.2275    2.9450   -2.8735 Cl  0  0  0  0  0  0  0  0  0 53  0  0
    3.0533    2.1705   -5.2003 C   0  0  0  0  0  0  0  0  0 49  0  0
    3.4613    3.0745   -5.6313 H   0  0  0  0  0  0  0  0  0 52  0  0
    2.2820    1.3236   -5.9654 C   0  0  0  0  0  0  0  0  0 50  0  0
    2.0569    1.5629   -7.0166 H   0  0  0  0  0  0  0  0  0 51  0  0
    0.6972   -2.4607   -5.3180 H   0  0  0  0  0  0  0  0  0 56  0  0
   -0.5172   -1.8881   -6.4926 H   0  0  0  0  0  0  0  0  0 57  0  0
   -1.5130    0.2792   -5.7467 H   0  0  0  0  0  0  0  0  0 58  0  0
   -3.0483    1.7219   -4.3362 C   0  0  0  0  0  0  0  0  0 34  0  0
   -3.3469    1.7040   -5.3632 H   0  0  0  0  0  0  0  0  0 39  0  0
   -3.6575    2.6173   -3.4674 C   0  0  0  0  0  0  0  0  0 35  0  0
   -4.4669    3.2329   -3.8326 H   0  0  0  0  0  0  0  0  0 38  0  0
   -3.2754    2.6927   -2.1363 C   0  0  0  0  0  0  0  0  0 36  0  0
   -3.7503    3.3774   -1.4537 H   0  0  0  0  0  0  0  0  0 37  0  0
   -2.3017    2.6902    0.5676 N   0  0  0  0  0  0  0  0  0 29  0  0
   -1.6458    2.6051    1.7741 O   0  0  0  0  0  0  0  0  0 30  0  0
    0.3984   -2.8469    4.1940 C   0  0  0  0  0  0  0  0  0  7  0  0
    1.1569   -3.2408    3.5397 H   0  0  0  0  0  0  0  0  0 10  0  0
   -0.4775   -3.7082    4.8303 C   0  0  0  0  0  0  0  0  0  8  0  0
   -0.3994   -4.7724    4.6430 H   0  0  0  0  0  0  0  0  0  9  0  0
   -1.3855   -5.7982    6.5230 H   0  0  0  0  0  0  0  0  0 65  0  0
   -3.1392   -5.7506    6.8251 H   0  0  0  0  0  0  0  0  0 66  0  0
  1  2  1  0
  1  3  1  0
  3  4  1  0
  4  5  4  0
  5  6  1  0
  5  7  4  0
  7  8  1  0
  7  9  4  0
  9 10  1  0
 10 11  2  0
 10 12  1  0
 12 13  1  0
 13 14  1  0
 13 15  1  0
 13 16  1  0
 16 17  1  0
 17 18  1  0
 17 19  1  0
 17 20  1  0
 20 21  1  1
 20 22  1  0
 22 23  2  0
 22 24  1  0
 24 25  1  0
 24 26  1  0
 16 27  1  0
 27 28  1  0
 27 29  1  0
 27 30  1  0
 30 31  1  0
 31 32  4  0
 32 33  1  0
 32 34  4  0
 34 35  1  0
 35 36  1  0
 36 37  2  0
 36 38  1  0
 38 39  1  0
 39 40  1  0
 40 41  4  0
 41 42  1  0
 41 43  4  0
 43 44  1  0
 43 45  4  0
 45 46  1  0
 45 47  4  0
 47 48  1  0
 47 49  4  0
 49 50  1  0
 38 51  1  0
 38 52  1  0
 35 53  1  0
 34 54  4  0
 54 55  1  0
 54 56  4  0
 56 57  1  0
 56 58  4  0
 58 59  1  0
 30 60  2  0
 60 61  1  0
  9 62  4  0
 62 63  1  0
 62 64  4  0
 64 65  1  0
  1 66  1  0
  1 67  1  0
 64  4  4  0
 20 12  1  0
 58 31  4  0
 16 61  1  1
 49 40  4  0
M  END
>  <sample_id>  (98)
train::COc1ccc(C(=O)N2CC3(CC(c4cccc(NC(=O)COc5ccc(Cl)cc5)c4)=NO3)C[C@@H]2C(N)=O)cc1__gen0001

>  <partition>  (98)
BAT_EXTERNAL_CONFIRM

>  <method>  (98)
BA_seed193

>  <candidate>  (98)
primary

$$$$
train::COc1ccc(C(=O)N2CC3(CC(c4cccc(NC(=O)COc5ccc(Cl)cc5)c4)=NO3)C[C@@H]2C(N)=O)cc1__gen0002
     RDKit          3D

 67 71  0  0  0  0  0  0  0  0999 V2000
    2.0677    6.5955   -4.5024 C   0  0  0  0  0  0  0  0  0  0  0  0
    3.0352    6.3307   -4.9368 H   0  0  0  0  0  0  0  0  0  1  0  0
    1.0634    5.6908   -4.9249 O   0  0  0  0  0  0  0  0  0  2  0  0
    1.1915    4.3876   -4.5930 C   0  0  0  0  0  0  0  0  0  3  0  0
    2.2382    3.8316   -3.8656 C   0  0  0  0  0  0  0  0  0  4  0  0
    3.0350    4.4519   -3.4911 H   0  0  0  0  0  0  0  0  0 64  0  0
    2.2575    2.4808   -3.5980 C   0  0  0  0  0  0  0  0  0  5  0  0
    3.0829    2.0458   -3.0383 H   0  0  0  0  0  0  0  0  0 63  0  0
    1.2359    1.6478   -4.0443 C   0  0  0  0  0  0  0  0  0  6  0  0
    1.3307    0.1869   -3.7721 C   0  0  0  0  0  0  0  0  0 11  0  0
    2.2947   -0.4683   -4.1569 O   0  0  0  0  0  0  0  0  0 12  0  0
    0.2897   -0.3775   -3.1027 N   0  0  0  0  0  0  0  0  0 13  0  0
   -0.8063    0.3718   -2.5127 C   0  0  0  0  0  0  0  0  0 14  0  0
   -0.4305    1.1524   -1.8596 H   0  0  0  0  0  0  0  0  0 15  0  0
   -1.4244    0.7985   -3.2945 H   0  0  0  0  0  0  0  0  0 62  0  0
   -1.5819   -0.6783   -1.7158 C   0  0  1  0  0  0  0  0  0 16  0  0
   -1.2420   -1.9975   -2.4311 C   0  0  0  0  0  0  0  0  0 17  0  0
   -1.3383   -2.8433   -1.7801 H   0  0  0  0  0  0  0  0  0 18  0  0
   -1.9133   -2.1069   -3.2845 H   0  0  0  0  0  0  0  0  0 26  0  0
    0.1992   -1.8113   -2.9003 C   0  0  2  0  0  0  0  0  0 19  0  0
    0.3974   -2.3001   -3.8530 H   0  0  0  0  0  0  0  0  0 20  0  0
    1.2081   -2.3434   -1.8591 C   0  0  0  0  0  0  0  0  0 21  0  0
    0.8612   -2.7723   -0.7631 O   0  0  0  0  0  0  0  0  0 22  0  0
    2.4551   -2.3492   -2.2871 N   0  0  0  0  0  0  0  0  0 23  0  0
    2.6867   -1.8952   -3.1700 H   0  0  0  0  0  0  0  0  0 24  0  0
    3.1910   -2.6310   -1.6564 H   0  0  0  0  0  0  0  0  0 25  0  0
   -1.2923   -0.7597   -0.2153 C   0  0  0  0  0  0  0  0  0 27  0  0
   -0.9124   -1.7261    0.0947 H   0  0  0  0  0  0  0  0  0 60  0  0
   -0.6004    0.0074    0.1318 H   0  0  0  0  0  0  0  0  0 61  0  0
   -2.6680   -0.4918    0.3442 C   0  0  0  0  0  0  0  0  0 28  0  0
   -3.0218   -0.5241    1.7594 C   0  0  0  0  0  0  0  0  0 31  0  0
   -2.2590   -1.3072    2.6162 C   0  0  0  0  0  0  0  0  0 32  0  0
   -1.4424   -1.8914    2.2090 H   0  0  0  0  0  0  0  0  0 59  0  0
   -2.5441   -1.3250    3.9730 C   0  0  0  0  0  0  0  0  0 33  0  0
   -1.7667   -2.0495    4.8865 N   0  0  0  0  0  0  0  0  0 40  0  0
   -0.9914   -3.1626    4.6407 C   0  0  0  0  0  0  0  0  0 41  0  0
   -1.1242   -3.9090    3.7004 O   0  0  0  0  0  0  0  0  0 42  0  0
    0.0551   -3.3405    5.7252 C   0  0  0  0  0  0  0  0  0 43  0  0
    0.7061   -2.1104    5.8634 O   0  0  0  0  0  0  0  0  0 44  0  0
    1.3409   -1.5763    4.7450 C   0  0  0  0  0  0  0  0  0 45  0  0
    1.5601   -2.2737    3.5676 C   0  0  0  0  0  0  0  0  0 46  0  0
    1.2483   -3.3001    3.4197 H   0  0  0  0  0  0  0  0  0 55  0  0
    2.1951   -1.6994    2.4694 C   0  0  0  0  0  0  0  0  0 47  0  0
    2.4076   -2.2510    1.5968 H   0  0  0  0  0  0  0  0  0 54  0  0
    2.5742   -0.3608    2.5698 C   0  0  0  0  0  0  0  0  0 48  0  0
    3.2866    0.3501    1.1761 Cl  0  0  0  0  0  0  0  0  0 53  0  0
    2.3534    0.3584    3.7372 C   0  0  0  0  0  0  0  0  0 49  0  0
    2.6616    1.3908    3.7993 H   0  0  0  0  0  0  0  0  0 52  0  0
    1.7567   -0.2436    4.8139 C   0  0  0  0  0  0  0  0  0 50  0  0
    1.5604    0.2902    5.7236 H   0  0  0  0  0  0  0  0  0 51  0  0
    0.7281   -4.1564    5.4407 H   0  0  0  0  0  0  0  0  0 56  0  0
   -0.3827   -3.5612    6.6967 H   0  0  0  0  0  0  0  0  0 57  0  0
   -1.7169   -1.6072    5.7874 H   0  0  0  0  0  0  0  0  0 58  0  0
   -3.5688   -0.5424    4.4734 C   0  0  0  0  0  0  0  0  0 34  0  0
   -3.7792   -0.5366    5.5390 H   0  0  0  0  0  0  0  0  0 39  0  0
   -4.3679    0.1933    3.6132 C   0  0  0  0  0  0  0  0  0 35  0  0
   -5.1877    0.7666    4.0181 H   0  0  0  0  0  0  0  0  0 38  0  0
   -4.1055    0.1970    2.2577 C   0  0  0  0  0  0  0  0  0 36  0  0
   -4.7119    0.7448    1.5656 H   0  0  0  0  0  0  0  0  0 37  0  0
   -3.5274   -0.2371   -0.5461 N   0  0  0  0  0  0  0  0  0 29  0  0
   -2.9653   -0.2585   -1.7687 O   0  0  0  0  0  0  0  0  0 30  0  0
    0.2048    2.2071   -4.8135 C   0  0  0  0  0  0  0  0  0  7  0  0
   -0.5736    1.5520   -5.1843 H   0  0  0  0  0  0  0  0  0 10  0  0
    0.1812    3.5531   -5.0663 C   0  0  0  0  0  0  0  0  0  8  0  0
   -0.6033    3.9891   -5.6694 H   0  0  0  0  0  0  0  0  0  9  0  0
    2.1525    6.6311   -3.4203 H   0  0  0  0  0  0  0  0  0 65  0  0
    1.7557    7.5725   -4.8779 H   0  0  0  0  0  0  0  0  0 66  0  0
  1  2  1  0
  1  3  1  0
  3  4  1  0
  4  5  4  0
  5  6  1  0
  5  7  4  0
  7  8  1  0
  7  9  4  0
  9 10  1  0
 10 11  2  0
 10 12  1  0
 12 13  1  0
 13 14  1  0
 13 15  1  0
 13 16  1  0
 16 17  1  0
 17 18  1  0
 17 19  1  0
 17 20  1  0
 20 21  1  6
 20 22  1  0
 22 23  2  0
 22 24  1  0
 24 25  1  0
 24 26  1  0
 16 27  1  0
 27 28  1  0
 27 29  1  0
 27 30  1  0
 30 31  1  0
 31 32  4  0
 32 33  1  0
 32 34  4  0
 34 35  1  0
 35 36  1  0
 36 37  2  0
 36 38  1  0
 38 39  1  0
 39 40  1  0
 40 41  4  0
 41 42  1  0
 41 43  4  0
 43 44  1  0
 43 45  4  0
 45 46  1  0
 45 47  4  0
 47 48  1  0
 47 49  4  0
 49 50  1  0
 38 51  1  0
 38 52  1  0
 35 53  1  0
 34 54  4  0
 54 55  1  0
 54 56  4  0
 56 57  1  0
 56 58  4  0
 58 59  1  0
 30 60  2  0
 60 61  1  0
  9 62  4  0
 62 63  1  0
 62 64  4  0
 64 65  1  0
  1 66  1  0
  1 67  1  0
 64  4  4  0
 20 12  1  0
 58 31  4  0
 16 61  1  1
 49 40  4  0
M  END
>  <sample_id>  (99)
train::COc1ccc(C(=O)N2CC3(CC(c4cccc(NC(=O)COc5ccc(Cl)cc5)c4)=NO3)C[C@@H]2C(N)=O)cc1__gen0002

>  <partition>  (99)
BAT_EXTERNAL_CONFIRM

>  <method>  (99)
BA_seed193

>  <candidate>  (99)
primary

$$$$
train::CC(C)(C)NC(=O)COc1ccc(C[NH2+]CCc2ccccc2)cc1__gen0000
     RDKit          3D

 54 55  0  0  0  0  0  0  0  0999 V2000
   -3.7892   -0.6628   -1.3210 C   0  0  0  0  0  0  0  0  0  0  0  0
   -3.4191   -0.8258   -2.3357 H   0  0  0  0  0  0  0  0  0  1  0  0
   -3.0921   -0.0156   -0.7977 H   0  0  0  0  0  0  0  0  0  2  0  0
   -4.7610   -0.1855   -1.3785 H   0  0  0  0  0  0  0  0  0  3  0  0
   -3.9017   -2.0104   -0.5997 C   0  0  1  0  0  0  0  0  0  4  0  0
   -2.5950   -2.6712   -0.5424 N   0  0  0  0  0  0  0  0  0  5  0  0
   -1.4753   -2.1547   -0.0083 C   0  0  0  0  0  0  0  0  0  6  0  0
   -1.3739   -1.0174    0.4130 O   0  0  0  0  0  0  0  0  0  7  0  0
   -0.2933   -3.1517    0.0339 C   0  0  0  0  0  0  0  0  0  8  0  0
   -0.4801   -3.9837   -0.6633 H   0  0  0  0  0  0  0  0  0  9  0  0
   -0.2281   -3.5559    1.0520 H   0  0  0  0  0  0  0  0  0 10  0  0
    0.9168   -2.6097   -0.3743 O   0  0  0  0  0  0  0  0  0 11  0  0
    1.5569   -1.6635    0.3728 C   0  0  0  0  0  0  0  0  0 12  0  0
    2.7486   -1.1934   -0.1609 C   0  0  0  0  0  0  0  0  0 13  0  0
    3.1488   -1.6553   -1.0544 H   0  0  0  0  0  0  0  0  0 44  0  0
    3.3998   -0.1390    0.4337 C   0  0  0  0  0  0  0  0  0 14  0  0
    4.3325    0.2218    0.0234 H   0  0  0  0  0  0  0  0  0 43  0  0
    2.8766    0.4592    1.5718 C   0  0  0  0  0  0  0  0  0 15  0  0
    3.4299    1.7244    2.1695 C   0  0  0  0  0  0  0  0  0 20  0  0
    3.6705    1.5603    3.2200 H   0  0  0  0  0  0  0  0  0 21  0  0
    4.3451    2.0328    1.6570 H   0  0  0  0  0  0  0  0  0 22  0  0
    2.3892    2.7848    2.0242 N   0  0  0  0  0  0  0  0  0 23  0  0
    2.1915    3.2259    2.9357 H   0  0  0  0  0  0  0  0  0 24  0  0
    2.6549    3.8818    1.0570 C   0  0  0  0  0  0  0  0  0 25  0  0
    1.7952    4.5542    1.0818 H   0  0  0  0  0  0  0  0  0 26  0  0
    3.5394    4.4297    1.3748 H   0  0  0  0  0  0  0  0  0 27  0  0
    2.8670    3.3572   -0.3713 C   0  0  0  0  0  0  0  0  0 28  0  0
    1.8011    2.4088   -0.8795 C   0  0  0  0  0  0  0  0  0 29  0  0
    2.1648    1.4025   -1.7650 C   0  0  0  0  0  0  0  0  0 30  0  0
    3.1956    1.3080   -2.0721 H   0  0  0  0  0  0  0  0  0 39  0  0
    1.2169    0.5371   -2.2872 C   0  0  0  0  0  0  0  0  0 31  0  0
    1.5109   -0.2328   -2.9733 H   0  0  0  0  0  0  0  0  0 38  0  0
   -0.1109    0.6705   -1.9199 C   0  0  0  0  0  0  0  0  0 32  0  0
   -0.8511   -0.0132   -2.3143 H   0  0  0  0  0  0  0  0  0 37  0  0
   -0.4794    1.6774   -1.0426 C   0  0  0  0  0  0  0  0  0 33  0  0
   -1.5165    1.8024   -0.7524 H   0  0  0  0  0  0  0  0  0 36  0  0
    0.4621    2.5365   -0.5260 C   0  0  0  0  0  0  0  0  0 34  0  0
    0.1377    3.3393    0.1057 H   0  0  0  0  0  0  0  0  0 35  0  0
    2.8794    4.2327   -1.0203 H   0  0  0  0  0  0  0  0  0 40  0  0
    3.8503    2.8844   -0.4488 H   0  0  0  0  0  0  0  0  0 41  0  0
    1.5468    2.2749    1.6921 H   0  0  0  0  0  0  0  0  0 42  0  0
    1.7487   -0.1061    2.1681 C   0  0  0  0  0  0  0  0  0 16  0  0
    1.3561    0.2822    3.0961 H   0  0  0  0  0  0  0  0  0 19  0  0
    1.0870   -1.1575    1.5787 C   0  0  0  0  0  0  0  0  0 17  0  0
    0.2064   -1.5572    2.0573 H   0  0  0  0  0  0  0  0  0 18  0  0
   -2.5310   -3.5729   -1.0010 H   0  0  0  0  0  0  0  0  0 45  0  0
   -4.4044   -1.7979    0.8403 C   0  0  0  0  0  0  0  0  0 46  0  0
   -3.7105   -1.1454    1.3820 H   0  0  0  0  0  0  0  0  0 47  0  0
   -5.3867   -1.3318    0.8261 H   0  0  0  0  0  0  0  0  0 48  0  0
   -4.4738   -2.7476    1.3655 H   0  0  0  0  0  0  0  0  0 49  0  0
   -4.8583   -2.9333   -1.3432 C   0  0  0  0  0  0  0  0  0 50  0  0
   -4.9469   -3.8890   -0.8363 H   0  0  0  0  0  0  0  0  0 51  0  0
   -5.8491   -2.4905   -1.3925 H   0  0  0  0  0  0  0  0  0 52  0  0
   -4.4992   -3.1184   -2.3505 H   0  0  0  0  0  0  0  0  0 53  0  0
  1  2  1  0
  1  3  1  0
  1  4  1  0
  1  5  1  0
  5  6  1  1
  6  7  1  0
  7  8  2  0
  7  9  1  0
  9 10  1  0
  9 11  1  0
  9 12  1  0
 12 13  1  0
 13 14  4  0
 14 15  1  0
 14 16  4  0
 16 17  1  0
 16 18  4  0
 18 19  1  0
 19 20  1  0
 19 21  1  0
 19 22  1  0
 22 23  1  0
 22 24  1  0
 24 25  1  0
 24 26  1  0
 24 27  1  0
 27 28  1  0
 28 29  4  0
 29 30  1  0
 29 31  4  0
 31 32  1  0
 31 33  4  0
 33 34  1  0
 33 35  4  0
 35 36  1  0
 35 37  4  0
 37 38  1  0
 27 39  1  0
 27 40  1  0
 22 41  1  0
 18 42  4  0
 42 43  1  0
 42 44  4  0
 44 45  1  0
  6 46  1  0
  5 47  1  0
 47 48  1  0
 47 49  1  0
 47 50  1  0
  5 51  1  0
 51 52  1  0
 51 53  1  0
 51 54  1  0
 44 13  4  0
 37 28  4  0
M  CHG  1  22   1
M  END
>  <sample_id>  (100)
train::CC(C)(C)NC(=O)COc1ccc(C[NH2+]CCc2ccccc2)cc1__gen0000

>  <partition>  (100)
BAT_EXTERNAL_CONFIRM

>  <method>  (100)
BA_seed193

>  <candidate>  (100)
primary

$$$$
train::CC(C)(C)NC(=O)COc1ccc(C[NH2+]CCc2ccccc2)cc1__gen0001
     RDKit          3D

 54 55  0  0  0  0  0  0  0  0999 V2000
   -1.9342   -1.1553    3.3534 C   0  0  0  0  0  0  0  0  0  0  0  0
   -1.2965   -0.4365    2.8568 H   0  0  0  0  0  0  0  0  0  1  0  0
   -2.8137   -0.6660    3.7519 H   0  0  0  0  0  0  0  0  0  2  0  0
   -1.3976   -1.6084    4.1788 H   0  0  0  0  0  0  0  0  0  3  0  0
   -2.3470   -2.2542    2.3696 C   0  0  1  0  0  0  0  0  0  4  0  0
   -3.0561   -1.6798    1.2422 N   0  0  0  0  0  0  0  0  0  5  0  0
   -2.6030   -0.7128    0.4207 C   0  0  0  0  0  0  0  0  0  6  0  0
   -1.5208   -0.1462    0.5250 O   0  0  0  0  0  0  0  0  0  7  0  0
   -3.5821   -0.3895   -0.7287 C   0  0  0  0  0  0  0  0  0  8  0  0
   -3.4234   -1.1189   -1.5364 H   0  0  0  0  0  0  0  0  0  9  0  0
   -4.6199   -0.4985   -0.3906 H   0  0  0  0  0  0  0  0  0 10  0  0
   -3.4815    0.9171   -1.1777 O   0  0  0  0  0  0  0  0  0 11  0  0
   -2.2839    1.3818   -1.6116 C   0  0  0  0  0  0  0  0  0 12  0  0
   -2.0943    2.7563   -1.5456 C   0  0  0  0  0  0  0  0  0 13  0  0
   -2.8980    3.3922   -1.2115 H   0  0  0  0  0  0  0  0  0 44  0  0
   -0.8577    3.2973   -1.8521 C   0  0  0  0  0  0  0  0  0 14  0  0
   -0.7014    4.3613   -1.7683 H   0  0  0  0  0  0  0  0  0 43  0  0
    0.1918    2.4725   -2.2363 C   0  0  0  0  0  0  0  0  0 15  0  0
    1.5834    3.0110   -2.4107 C   0  0  0  0  0  0  0  0  0 20  0  0
    1.5852    4.0957   -2.2939 H   0  0  0  0  0  0  0  0  0 21  0  0
    2.0010    2.7517   -3.3853 H   0  0  0  0  0  0  0  0  0 22  0  0
    2.4616    2.3976   -1.3596 N   0  0  0  0  0  0  0  0  0 23  0  0
    3.4173    2.7074   -1.4804 H   0  0  0  0  0  0  0  0  0 24  0  0
    2.0235    2.5991    0.0542 C   0  0  0  0  0  0  0  0  0 25  0  0
    1.0480    3.1030    0.0469 H   0  0  0  0  0  0  0  0  0 26  0  0
    2.7471    3.2488    0.5542 H   0  0  0  0  0  0  0  0  0 27  0  0
    1.8966    1.2467    0.7801 C   0  0  0  0  0  0  0  0  0 28  0  0
    2.7208    0.1944    0.0975 C   0  0  0  0  0  0  0  0  0 29  0  0
    4.1158    0.2254    0.1560 C   0  0  0  0  0  0  0  0  0 30  0  0
    4.6120    0.9821    0.7593 H   0  0  0  0  0  0  0  0  0 39  0  0
    4.8708   -0.7222   -0.5014 C   0  0  0  0  0  0  0  0  0 31  0  0
    5.9476   -0.6961   -0.4525 H   0  0  0  0  0  0  0  0  0 38  0  0
    4.2430   -1.7055   -1.2426 C   0  0  0  0  0  0  0  0  0 32  0  0
    4.8329   -2.4437   -1.7719 H   0  0  0  0  0  0  0  0  0 37  0  0
    2.8613   -1.7498   -1.3130 C   0  0  0  0  0  0  0  0  0 33  0  0
    2.3771   -2.5298   -1.8661 H   0  0  0  0  0  0  0  0  0 36  0  0
    2.1057   -0.8183   -0.6316 C   0  0  0  0  0  0  0  0  0 34  0  0
    1.0273   -0.8622   -0.6557 H   0  0  0  0  0  0  0  0  0 35  0  0
    0.8423    0.9332    0.7835 H   0  0  0  0  0  0  0  0  0 40  0  0
    2.2178    1.3693    1.8110 H   0  0  0  0  0  0  0  0  0 41  0  0
    2.4280    1.3566   -1.4997 H   0  0  0  0  0  0  0  0  0 42  0  0
   -0.0460    1.1139   -2.4274 C   0  0  0  0  0  0  0  0  0 16  0  0
    0.7361    0.4742   -2.7940 H   0  0  0  0  0  0  0  0  0 19  0  0
   -1.2629    0.5631   -2.1061 C   0  0  0  0  0  0  0  0  0 17  0  0
   -1.4199   -0.4962   -2.2197 H   0  0  0  0  0  0  0  0  0 18  0  0
   -3.9983   -2.0174    1.0991 H   0  0  0  0  0  0  0  0  0 45  0  0
   -1.0935   -2.9836    1.8451 C   0  0  0  0  0  0  0  0  0 46  0  0
   -0.5663   -3.4604    2.6624 H   0  0  0  0  0  0  0  0  0 47  0  0
   -0.4163   -2.2701    1.3583 H   0  0  0  0  0  0  0  0  0 48  0  0
   -1.3647   -3.7418    1.1132 H   0  0  0  0  0  0  0  0  0 49  0  0
   -3.2751   -3.2603    3.0365 C   0  0  0  0  0  0  0  0  0 50  0  0
   -4.1728   -2.7551    3.3941 H   0  0  0  0  0  0  0  0  0 51  0  0
   -3.5822   -4.0411    2.3386 H   0  0  0  0  0  0  0  0  0 52  0  0
   -2.7851   -3.7320    3.8818 H   0  0  0  0  0  0  0  0  0 53  0  0
  1  2  1  0
  1  3  1  0
  1  4  1  0
  1  5  1  0
  5  6  1  6
  6  7  1  0
  7  8  2  0
  7  9  1  0
  9 10  1  0
  9 11  1  0
  9 12  1  0
 12 13  1  0
 13 14  4  0
 14 15  1  0
 14 16  4  0
 16 17  1  0
 16 18  4  0
 18 19  1  0
 19 20  1  0
 19 21  1  0
 19 22  1  0
 22 23  1  0
 22 24  1  0
 24 25  1  0
 24 26  1  0
 24 27  1  0
 27 28  1  0
 28 29  4  0
 29 30  1  0
 29 31  4  0
 31 32  1  0
 31 33  4  0
 33 34  1  0
 33 35  4  0
 35 36  1  0
 35 37  4  0
 37 38  1  0
 27 39  1  0
 27 40  1  0
 22 41  1  0
 18 42  4  0
 42 43  1  0
 42 44  4  0
 44 45  1  0
  6 46  1  0
  5 47  1  0
 47 48  1  0
 47 49  1  0
 47 50  1  0
  5 51  1  0
 51 52  1  0
 51 53  1  0
 51 54  1  0
 44 13  4  0
 37 28  4  0
M  CHG  1  22   1
M  END
>  <sample_id>  (101)
train::CC(C)(C)NC(=O)COc1ccc(C[NH2+]CCc2ccccc2)cc1__gen0001

>  <partition>  (101)
BAT_EXTERNAL_CONFIRM

>  <method>  (101)
BA_seed193

>  <candidate>  (101)
primary

$$$$
train::CC(C)(C)NC(=O)COc1ccc(C[NH2+]CCc2ccccc2)cc1__gen0002
     RDKit          3D

 54 55  0  0  0  0  0  0  0  0999 V2000
    0.7716    4.4807    1.2550 C   0  0  0  0  0  0  0  0  0  0  0  0
    0.3514    5.3474    1.7535 H   0  0  0  0  0  0  0  0  0  1  0  0
    0.5987    3.6055    1.8779 H   0  0  0  0  0  0  0  0  0  2  0  0
    0.2453    4.3509    0.3146 H   0  0  0  0  0  0  0  0  0  3  0  0
    2.2739    4.6803    1.0197 C   0  0  1  0  0  0  0  0  0  4  0  0
    2.8049    3.4971    0.3573 N   0  0  0  0  0  0  0  0  0  5  0  0
    2.8466    2.2595    0.8470 C   0  0  0  0  0  0  0  0  0  6  0  0
    2.4996    1.9438    1.9730 O   0  0  0  0  0  0  0  0  0  7  0  0
    3.3943    1.2333   -0.1606 C   0  0  0  0  0  0  0  0  0  8  0  0
    3.4637    0.2515    0.3217 H   0  0  0  0  0  0  0  0  0  9  0  0
    4.3983    1.5384   -0.4636 H   0  0  0  0  0  0  0  0  0 10  0  0
    2.6286    1.1909   -1.3302 O   0  0  0  0  0  0  0  0  0 11  0  0
    1.3678    0.7126   -1.2735 C   0  0  0  0  0  0  0  0  0 12  0  0
    0.6896    0.6635   -2.4877 C   0  0  0  0  0  0  0  0  0 13  0  0
    1.2004    0.9882   -3.3735 H   0  0  0  0  0  0  0  0  0 44  0  0
   -0.6066    0.1925   -2.5523 C   0  0  0  0  0  0  0  0  0 14  0  0
   -1.1120    0.1483   -3.5074 H   0  0  0  0  0  0  0  0  0 43  0  0
   -1.2696   -0.2220   -1.3880 C   0  0  0  0  0  0  0  0  0 15  0  0
   -2.6594   -0.7860   -1.4486 C   0  0  0  0  0  0  0  0  0 20  0  0
   -3.0479   -0.7473   -2.4733 H   0  0  0  0  0  0  0  0  0 21  0  0
   -3.3389   -0.2124   -0.8142 H   0  0  0  0  0  0  0  0  0 22  0  0
   -2.6493   -2.1893   -0.9871 N   0  0  0  0  0  0  0  0  0 23  0  0
   -2.4284   -2.2475    0.0197 H   0  0  0  0  0  0  0  0  0 24  0  0
   -3.8732   -2.9988   -1.1986 C   0  0  0  0  0  0  0  0  0 25  0  0
   -3.8268   -3.4582   -2.1777 H   0  0  0  0  0  0  0  0  0 26  0  0
   -4.7443   -2.3456   -1.1527 H   0  0  0  0  0  0  0  0  0 27  0  0
   -3.9232   -4.0751   -0.0930 C   0  0  0  0  0  0  0  0  0 28  0  0
   -2.5390   -4.5076    0.2823 C   0  0  0  0  0  0  0  0  0 29  0  0
   -1.8172   -5.3846   -0.5291 C   0  0  0  0  0  0  0  0  0 30  0  0
   -2.2897   -5.8042   -1.4025 H   0  0  0  0  0  0  0  0  0 39  0  0
   -0.5238   -5.7458   -0.2014 C   0  0  0  0  0  0  0  0  0 31  0  0
    0.0091   -6.4414   -0.8372 H   0  0  0  0  0  0  0  0  0 38  0  0
    0.0714   -5.2392    0.9442 C   0  0  0  0  0  0  0  0  0 32  0  0
    1.0846   -5.5246    1.1920 H   0  0  0  0  0  0  0  0  0 37  0  0
   -0.6328   -4.3744    1.7509 C   0  0  0  0  0  0  0  0  0 33  0  0
   -0.1729   -3.9841    2.6443 H   0  0  0  0  0  0  0  0  0 36  0  0
   -1.9239   -4.0197    1.4270 C   0  0  0  0  0  0  0  0  0 34  0  0
   -2.4730   -3.3601    2.0877 H   0  0  0  0  0  0  0  0  0 35  0  0
   -4.4220   -3.6649    0.7877 H   0  0  0  0  0  0  0  0  0 40  0  0
   -4.5152   -4.9257   -0.4396 H   0  0  0  0  0  0  0  0  0 41  0  0
   -1.8638   -2.6810   -1.4218 H   0  0  0  0  0  0  0  0  0 42  0  0
   -0.5949   -0.1415   -0.1704 C   0  0  0  0  0  0  0  0  0 16  0  0
   -1.0985   -0.4368    0.7352 H   0  0  0  0  0  0  0  0  0 19  0  0
    0.7059    0.3089   -0.1065 C   0  0  0  0  0  0  0  0  0 17  0  0
    1.1793    0.3947    0.8525 H   0  0  0  0  0  0  0  0  0 18  0  0
    3.0047    3.6100   -0.6276 H   0  0  0  0  0  0  0  0  0 45  0  0
    2.5272    5.8743    0.1066 C   0  0  0  0  0  0  0  0  0 46  0  0
    3.5893    5.9803   -0.0787 H   0  0  0  0  0  0  0  0  0 47  0  0
    2.0146    5.7400   -0.8428 H   0  0  0  0  0  0  0  0  0 48  0  0
    2.1641    6.7857    0.5626 H   0  0  0  0  0  0  0  0  0 49  0  0
    2.9827    4.8928    2.3623 C   0  0  0  0  0  0  0  0  0 50  0  0
    2.6110    5.7910    2.8481 H   0  0  0  0  0  0  0  0  0 51  0  0
    4.0445    5.0169    2.2026 H   0  0  0  0  0  0  0  0  0 52  0  0
    2.8233    4.0387    3.0143 H   0  0  0  0  0  0  0  0  0 53  0  0
  1  2  1  0
  1  3  1  0
  1  4  1  0
  1  5  1  0
  5  6  1  6
  6  7  1  0
  7  8  2  0
  7  9  1  0
  9 10  1  0
  9 11  1  0
  9 12  1  0
 12 13  1  0
 13 14  4  0
 14 15  1  0
 14 16  4  0
 16 17  1  0
 16 18  4  0
 18 19  1  0
 19 20  1  0
 19 21  1  0
 19 22  1  0
 22 23  1  0
 22 24  1  0
 24 25  1  0
 24 26  1  0
 24 27  1  0
 27 28  1  0
 28 29  4  0
 29 30  1  0
 29 31  4  0
 31 32  1  0
 31 33  4  0
 33 34  1  0
 33 35  4  0
 35 36  1  0
 35 37  4  0
 37 38  1  0
 27 39  1  0
 27 40  1  0
 22 41  1  0
 18 42  4  0
 42 43  1  0
 42 44  4  0
 44 45  1  0
  6 46  1  0
  5 47  1  0
 47 48  1  0
 47 49  1  0
 47 50  1  0
  5 51  1  0
 51 52  1  0
 51 53  1  0
 51 54  1  0
 44 13  4  0
 37 28  4  0
M  CHG  1  22   1
M  END
>  <sample_id>  (102)
train::CC(C)(C)NC(=O)COc1ccc(C[NH2+]CCc2ccccc2)cc1__gen0002

>  <partition>  (102)
BAT_EXTERNAL_CONFIRM

>  <method>  (102)
BA_seed193

>  <candidate>  (102)
primary

$$$$
train::CC(C)OCCCNC(=O)c1ccc(NC(=O)C2CCCO2)cc1__gen0000
     RDKit          3D

 50 51  0  0  0  0  0  0  0  0999 V2000
    0.1505    2.4862   -1.4132 C   0  0  0  0  0  0  0  0  0  0  0  0
   -0.8524    2.1972   -1.7094 H   0  0  0  0  0  0  0  0  0  1  0  0
    0.0918    3.4319   -0.8759 H   0  0  0  0  0  0  0  0  0  2  0  0
    0.5710    1.7350   -0.7530 H   0  0  0  0  0  0  0  0  0  3  0  0
    1.0314    2.6682   -2.6657 C   0  0  1  0  0  0  0  0  0  4  0  0
    2.4589    2.9973   -2.2754 C   0  0  0  0  0  0  0  0  0  5  0  0
    2.9093    2.1706   -1.7331 H   0  0  0  0  0  0  0  0  0  6  0  0
    2.4876    3.8811   -1.6456 H   0  0  0  0  0  0  0  0  0  7  0  0
    3.0679    3.1745   -3.1615 H   0  0  0  0  0  0  0  0  0  8  0  0
    1.0183    1.4562   -3.4143 O   0  0  0  0  0  0  0  0  0  9  0  0
    0.6128    1.6284   -4.7632 C   0  0  0  0  0  0  0  0  0 10  0  0
    0.5186    0.2661   -5.4315 C   0  0  0  0  0  0  0  0  0 11  0  0
    0.4749    0.4154   -6.5196 H   0  0  0  0  0  0  0  0  0 12  0  0
    1.4273   -0.3045   -5.2093 H   0  0  0  0  0  0  0  0  0 13  0  0
   -0.7163   -0.5374   -5.0068 C   0  0  0  0  0  0  0  0  0 14  0  0
   -0.6835   -0.8845   -3.6166 N   0  0  0  0  0  0  0  0  0 15  0  0
   -1.5302   -0.3658   -2.7067 C   0  0  0  0  0  0  0  0  0 16  0  0
   -2.5059    0.2996   -3.0052 O   0  0  0  0  0  0  0  0  0 17  0  0
   -1.2379   -0.7546   -1.2915 C   0  0  0  0  0  0  0  0  0 18  0  0
   -2.2991   -0.9168   -0.4142 C   0  0  0  0  0  0  0  0  0 19  0  0
   -3.3005   -0.7929   -0.7864 H   0  0  0  0  0  0  0  0  0 43  0  0
   -2.0689   -1.2404    0.9053 C   0  0  0  0  0  0  0  0  0 20  0  0
   -2.8990   -1.3865    1.5741 H   0  0  0  0  0  0  0  0  0 42  0  0
   -0.7681   -1.3887    1.3796 C   0  0  0  0  0  0  0  0  0 21  0  0
   -0.5937   -1.7193    2.7274 N   0  0  0  0  0  0  0  0  0 26  0  0
    0.5518   -1.8696    3.4338 C   0  0  0  0  0  0  0  0  0 27  0  0
    1.6782   -1.7410    3.0043 O   0  0  0  0  0  0  0  0  0 28  0  0
    0.2612   -2.2592    4.8857 C   0  0  1  0  0  0  0  0  0 29  0  0
    0.5007   -3.3289    4.9791 H   0  0  0  0  0  0  0  0  0 30  0  0
    1.0826   -1.4204    5.8652 C   0  0  0  0  0  0  0  0  0 31  0  0
    1.2613   -1.9488    6.7872 H   0  0  0  0  0  0  0  0  0 32  0  0
    2.0364   -1.1167    5.4190 H   0  0  0  0  0  0  0  0  0 33  0  0
    0.1399   -0.2370    6.0856 C   0  0  0  0  0  0  0  0  0 34  0  0
    0.1851    0.4672    5.2523 H   0  0  0  0  0  0  0  0  0 35  0  0
    0.3313    0.3099    7.0120 H   0  0  0  0  0  0  0  0  0 36  0  0
   -1.2207   -0.9369    6.0853 C   0  0  0  0  0  0  0  0  0 37  0  0
   -1.4816   -1.2832    7.0945 H   0  0  0  0  0  0  0  0  0 38  0  0
   -2.0402   -0.3065    5.7285 H   0  0  0  0  0  0  0  0  0 40  0  0
   -1.1031   -2.0713    5.2397 O   0  0  0  0  0  0  0  0  0 39  0  0
   -1.4567   -1.8464    3.2363 H   0  0  0  0  0  0  0  0  0 41  0  0
    0.3020   -1.1927    0.5063 C   0  0  0  0  0  0  0  0  0 22  0  0
    1.3165   -1.2850    0.8720 H   0  0  0  0  0  0  0  0  0 25  0  0
    0.0623   -0.8673   -0.8114 C   0  0  0  0  0  0  0  0  0 23  0  0
    0.9067   -0.6766   -1.4615 H   0  0  0  0  0  0  0  0  0 24  0  0
    0.1300   -1.3976   -3.3019 H   0  0  0  0  0  0  0  0  0 44  0  0
   -1.6182    0.0589   -5.1478 H   0  0  0  0  0  0  0  0  0 45  0  0
   -0.7834   -1.4402   -5.6123 H   0  0  0  0  0  0  0  0  0 46  0  0
    1.3432    2.2586   -5.2781 H   0  0  0  0  0  0  0  0  0 47  0  0
   -0.3658    2.1318   -4.7941 H   0  0  0  0  0  0  0  0  0 48  0  0
    0.6158    3.4831   -3.2679 H   0  0  0  0  0  0  0  0  0 49  0  0
  1  2  1  0
  1  3  1  0
  1  4  1  0
  1  5  1  0
  5  6  1  0
  6  7  1  0
  6  8  1  0
  6  9  1  0
  5 10  1  0
 10 11  1  0
 11 12  1  0
 12 13  1  0
 12 14  1  0
 12 15  1  0
 15 16  1  0
 16 17  1  0
 17 18  2  0
 17 19  1  0
 19 20  4  0
 20 21  1  0
 20 22  4  0
 22 23  1  0
 22 24  4  0
 24 25  1  0
 25 26  1  0
 26 27  2  0
 26 28  1  0
 28 29  1  1
 28 30  1  0
 30 31  1  0
 30 32  1  0
 30 33  1  0
 33 34  1  0
 33 35  1  0
 33 36  1  0
 36 37  1  0
 36 38  1  0
 36 39  1  0
 25 40  1  0
 24 41  4  0
 41 42  1  0
 41 43  4  0
 43 44  1  0
 16 45  1  0
 15 46  1  0
 15 47  1  0
 11 48  1  0
 11 49  1  0
  5 50  1  6
 43 19  4  0
 39 28  1  0
M  END
>  <sample_id>  (103)
train::CC(C)OCCCNC(=O)c1ccc(NC(=O)C2CCCO2)cc1__gen0000

>  <partition>  (103)
BAT_EXTERNAL_CONFIRM

>  <method>  (103)
BA_seed193

>  <candidate>  (103)
primary

$$$$
train::CC(C)OCCCNC(=O)c1ccc(NC(=O)C2CCCO2)cc1__gen0001
     RDKit          3D

 50 51  0  0  0  0  0  0  0  0999 V2000
   -4.0895   -1.2746    2.6063 C   0  0  0  0  0  0  0  0  0  0  0  0
   -4.4473   -2.0326    3.2764 H   0  0  0  0  0  0  0  0  0  1  0  0
   -3.7162   -1.7532    1.6986 H   0  0  0  0  0  0  0  0  0  2  0  0
   -4.9110   -0.6279    2.3352 H   0  0  0  0  0  0  0  0  0  3  0  0
   -2.9662   -0.4392    3.2257 C   0  0  1  0  0  0  0  0  0  4  0  0
   -3.4411    0.2480    4.5121 C   0  0  0  0  0  0  0  0  0  5  0  0
   -4.2332    0.9546    4.2918 H   0  0  0  0  0  0  0  0  0  6  0  0
   -3.8220   -0.4780    5.2375 H   0  0  0  0  0  0  0  0  0  7  0  0
   -2.6167    0.7873    4.9837 H   0  0  0  0  0  0  0  0  0  8  0  0
   -1.7601   -1.1701    3.3987 O   0  0  0  0  0  0  0  0  0  9  0  0
   -1.7652   -2.2381    4.3330 C   0  0  0  0  0  0  0  0  0 10  0  0
   -0.3725   -2.8442    4.3796 C   0  0  0  0  0  0  0  0  0 11  0  0
   -0.3131   -3.5601    5.1990 H   0  0  0  0  0  0  0  0  0 12  0  0
    0.3618   -2.0651    4.5301 H   0  0  0  0  0  0  0  0  0 13  0  0
   -0.0353   -3.5924    3.0783 C   0  0  0  0  0  0  0  0  0 14  0  0
    0.1038   -2.6819    1.9578 N   0  0  0  0  0  0  0  0  0 15  0  0
    1.2814   -2.4546    1.3356 C   0  0  0  0  0  0  0  0  0 16  0  0
    2.2896   -3.0946    1.5698 O   0  0  0  0  0  0  0  0  0 17  0  0
    1.2297   -1.3696    0.3285 C   0  0  0  0  0  0  0  0  0 18  0  0
    0.0993   -1.1172   -0.4441 C   0  0  0  0  0  0  0  0  0 19  0  0
   -0.7841   -1.7214   -0.3507 H   0  0  0  0  0  0  0  0  0 43  0  0
    0.1005   -0.1072   -1.3944 C   0  0  0  0  0  0  0  0  0 20  0  0
   -0.7694    0.0692   -2.0024 H   0  0  0  0  0  0  0  0  0 42  0  0
    1.2440    0.6902   -1.5758 C   0  0  0  0  0  0  0  0  0 21  0  0
    1.1757    1.7010   -2.5455 N   0  0  0  0  0  0  0  0  0 26  0  0
    2.1137    2.6355   -2.8661 C   0  0  0  0  0  0  0  0  0 27  0  0
    3.2022    2.7669   -2.3658 O   0  0  0  0  0  0  0  0  0 28  0  0
    1.5823    3.5645   -3.9796 C   0  0  1  0  0  0  0  0  0 29  0  0
    1.1890    4.4578   -3.5108 H   0  0  0  0  0  0  0  0  0 30  0  0
    2.7091    3.8439   -4.9963 C   0  0  0  0  0  0  0  0  0 31  0  0
    2.5061    4.8044   -5.5239 H   0  0  0  0  0  0  0  0  0 32  0  0
    3.6726    3.8796   -4.4935 H   0  0  0  0  0  0  0  0  0 33  0  0
    2.5307    2.6857   -5.9609 C   0  0  0  0  0  0  0  0  0 34  0  0
    2.9403    2.8704   -6.9475 H   0  0  0  0  0  0  0  0  0 35  0  0
    3.0159    1.7965   -5.5283 H   0  0  0  0  0  0  0  0  0 36  0  0
    1.0223    2.5070   -5.9723 C   0  0  0  0  0  0  0  0  0 37  0  0
    0.5577    3.0844   -6.7764 H   0  0  0  0  0  0  0  0  0 38  0  0
    0.7213    1.4641   -6.0987 H   0  0  0  0  0  0  0  0  0 40  0  0
    0.5265    2.9678   -4.7222 O   0  0  0  0  0  0  0  0  0 39  0  0
    0.3188    1.7344   -3.0546 H   0  0  0  0  0  0  0  0  0 41  0  0
    2.3659    0.4306   -0.8106 C   0  0  0  0  0  0  0  0  0 22  0  0
    3.2627    1.0296   -0.9569 H   0  0  0  0  0  0  0  0  0 25  0  0
    2.3626   -0.5924    0.1161 C   0  0  0  0  0  0  0  0  0 23  0  0
    3.2500   -0.8151    0.6990 H   0  0  0  0  0  0  0  0  0 24  0  0
   -0.6350   -1.9869    1.8872 H   0  0  0  0  0  0  0  0  0 44  0  0
    0.9475   -4.0950    3.1698 H   0  0  0  0  0  0  0  0  0 45  0  0
   -0.7953   -4.3391    2.8486 H   0  0  0  0  0  0  0  0  0 46  0  0
   -2.0247   -1.8682    5.3347 H   0  0  0  0  0  0  0  0  0 47  0  0
   -2.5011   -2.9962    4.0300 H   0  0  0  0  0  0  0  0  0 48  0  0
   -2.6843    0.3413    2.5138 H   0  0  0  0  0  0  0  0  0 49  0  0
  1  2  1  0
  1  3  1  0
  1  4  1  0
  1  5  1  0
  5  6  1  0
  6  7  1  0
  6  8  1  0
  6  9  1  0
  5 10  1  0
 10 11  1  0
 11 12  1  0
 12 13  1  0
 12 14  1  0
 12 15  1  0
 15 16  1  0
 16 17  1  0
 17 18  2  0
 17 19  1  0
 19 20  4  0
 20 21  1  0
 20 22  4  0
 22 23  1  0
 22 24  4  0
 24 25  1  0
 25 26  1  0
 26 27  2  0
 26 28  1  0
 28 29  1  6
 28 30  1  0
 30 31  1  0
 30 32  1  0
 30 33  1  0
 33 34  1  0
 33 35  1  0
 33 36  1  0
 36 37  1  0
 36 38  1  0
 36 39  1  0
 25 40  1  0
 24 41  4  0
 41 42  1  0
 41 43  4  0
 43 44  1  0
 16 45  1  0
 15 46  1  0
 15 47  1  0
 11 48  1  0
 11 49  1  0
  5 50  1  6
 43 19  4  0
 39 28  1  0
M  END
>  <sample_id>  (104)
train::CC(C)OCCCNC(=O)c1ccc(NC(=O)C2CCCO2)cc1__gen0001

>  <partition>  (104)
BAT_EXTERNAL_CONFIRM

>  <method>  (104)
BA_seed193

>  <candidate>  (104)
primary

$$$$
train::CC(C)OCCCNC(=O)c1ccc(NC(=O)C2CCCO2)cc1__gen0002
     RDKit          3D

 50 51  0  0  0  0  0  0  0  0999 V2000
    1.6451    1.7324   -0.8279 C   0  0  0  0  0  0  0  0  0  0  0  0
    0.9401    1.0368   -0.3684 H   0  0  0  0  0  0  0  0  0  1  0  0
    1.1582    2.7031   -0.9121 H   0  0  0  0  0  0  0  0  0  2  0  0
    2.5088    1.8289   -0.1716 H   0  0  0  0  0  0  0  0  0  3  0  0
    2.0505    1.2464   -2.2081 C   0  0  2  0  0  0  0  0  0  4  0  0
    0.8239    0.9391   -3.0680 C   0  0  0  0  0  0  0  0  0  5  0  0
    0.2875    0.0850   -2.6689 H   0  0  0  0  0  0  0  0  0  6  0  0
    1.1123    0.7402   -4.0936 H   0  0  0  0  0  0  0  0  0  7  0  0
    0.1654    1.8027   -3.0647 H   0  0  0  0  0  0  0  0  0  8  0  0
    2.8819    0.1011   -2.0032 O   0  0  0  0  0  0  0  0  0  9  0  0
    3.4904   -0.4086   -3.1704 C   0  0  0  0  0  0  0  0  0 10  0  0
    4.4471   -1.5201   -2.7434 C   0  0  0  0  0  0  0  0  0 11  0  0
    5.1335   -1.7345   -3.5738 H   0  0  0  0  0  0  0  0  0 12  0  0
    5.0390   -1.1740   -1.8957 H   0  0  0  0  0  0  0  0  0 13  0  0
    3.6999   -2.8051   -2.3675 C   0  0  0  0  0  0  0  0  0 14  0  0
    2.7269   -2.5488   -1.3467 N   0  0  0  0  0  0  0  0  0 15  0  0
    1.4012   -2.6542   -1.6084 C   0  0  0  0  0  0  0  0  0 16  0  0
    0.9740   -3.2094   -2.6088 O   0  0  0  0  0  0  0  0  0 17  0  0
    0.4818   -2.0630   -0.5794 C   0  0  0  0  0  0  0  0  0 18  0  0
    0.8759   -1.7896    0.7268 C   0  0  0  0  0  0  0  0  0 19  0  0
    1.8523   -2.0531    1.0922 H   0  0  0  0  0  0  0  0  0 43  0  0
   -0.0158   -1.2108    1.6054 C   0  0  0  0  0  0  0  0  0 20  0  0
    0.2924   -0.9987    2.6212 H   0  0  0  0  0  0  0  0  0 42  0  0
   -1.3072   -0.8833    1.2110 C   0  0  0  0  0  0  0  0  0 21  0  0
   -2.1618   -0.2901    2.1408 N   0  0  0  0  0  0  0  0  0 26  0  0
   -3.4204    0.1508    1.9962 C   0  0  0  0  0  0  0  0  0 27  0  0
   -4.0962    0.1222    0.9887 O   0  0  0  0  0  0  0  0  0 28  0  0
   -3.9721    0.7227    3.3184 C   0  0  2  0  0  0  0  0  0 29  0  0
   -4.6219   -0.0451    3.7665 H   0  0  0  0  0  0  0  0  0 30  0  0
   -4.7109    2.0384    3.0649 C   0  0  0  0  0  0  0  0  0 31  0  0
   -5.4788    2.2038    3.8152 H   0  0  0  0  0  0  0  0  0 32  0  0
   -5.1425    2.0500    2.0634 H   0  0  0  0  0  0  0  0  0 33  0  0
   -3.5664    3.0392    3.2388 C   0  0  0  0  0  0  0  0  0 34  0  0
   -3.9114    4.0466    3.4796 H   0  0  0  0  0  0  0  0  0 35  0  0
   -2.9555    3.0783    2.3444 H   0  0  0  0  0  0  0  0  0 36  0  0
   -2.7719    2.4111    4.3781 C   0  0  0  0  0  0  0  0  0 37  0  0
   -3.1427    2.7220    5.3564 H   0  0  0  0  0  0  0  0  0 38  0  0
   -1.7033    2.6533    4.3188 H   0  0  0  0  0  0  0  0  0 40  0  0
   -2.9449    1.0017    4.2523 O   0  0  0  0  0  0  0  0  0 39  0  0
   -1.7536   -0.1717    3.0584 H   0  0  0  0  0  0  0  0  0 41  0  0
   -1.6970   -1.1674   -0.0985 C   0  0  0  0  0  0  0  0  0 22  0  0
   -2.7052   -0.9310   -0.4241 H   0  0  0  0  0  0  0  0  0 25  0  0
   -0.8056   -1.7406   -0.9780 C   0  0  0  0  0  0  0  0  0 23  0  0
   -1.1124   -1.9845   -1.9884 H   0  0  0  0  0  0  0  0  0 24  0  0
    3.0073   -1.9044   -0.6224 H   0  0  0  0  0  0  0  0  0 44  0  0
    3.1772   -3.2148   -3.2305 H   0  0  0  0  0  0  0  0  0 45  0  0
    4.4209   -3.5407   -2.0014 H   0  0  0  0  0  0  0  0  0 46  0  0
    2.7194   -0.8283   -3.8244 H   0  0  0  0  0  0  0  0  0 47  0  0
    4.0244    0.3965   -3.6838 H   0  0  0  0  0  0  0  0  0 48  0  0
    2.6603    2.0195   -2.7054 H   0  0  0  0  0  0  0  0  0 49  0  0
  1  2  1  0
  1  3  1  0
  1  4  1  0
  1  5  1  0
  5  6  1  0
  6  7  1  0
  6  8  1  0
  6  9  1  0
  5 10  1  0
 10 11  1  0
 11 12  1  0
 12 13  1  0
 12 14  1  0
 12 15  1  0
 15 16  1  0
 16 17  1  0
 17 18  2  0
 17 19  1  0
 19 20  4  0
 20 21  1  0
 20 22  4  0
 22 23  1  0
 22 24  4  0
 24 25  1  0
 25 26  1  0
 26 27  2  0
 26 28  1  0
 28 29  1  1
 28 30  1  0
 30 31  1  0
 30 32  1  0
 30 33  1  0
 33 34  1  0
 33 35  1  0
 33 36  1  0
 36 37  1  0
 36 38  1  0
 36 39  1  0
 25 40  1  0
 24 41  4  0
 41 42  1  0
 41 43  4  0
 43 44  1  0
 16 45  1  0
 15 46  1  0
 15 47  1  0
 11 48  1  0
 11 49  1  0
  5 50  1  1
 43 19  4  0
 39 28  1  0
M  END
>  <sample_id>  (105)
train::CC(C)OCCCNC(=O)c1ccc(NC(=O)C2CCCO2)cc1__gen0002

>  <partition>  (105)
BAT_EXTERNAL_CONFIRM

>  <method>  (105)
BA_seed193

>  <candidate>  (105)
primary

$$$$
train::O=C(CSc1nnnn1Cc1ccccc1)Nc1ccc2c(c1)OCO2__gen0000
     RDKit          3D

 41 44  0  0  0  0  0  0  0  0999 V2000
    0.4708   -3.2129    2.0208 O   0  0  0  0  0  0  0  0  0  0  0  0
   -0.3717   -2.3532    1.8451 C   0  0  0  0  0  0  0  0  0  1  0  0
   -0.2393   -1.0336    2.0880 N   0  0  0  0  0  0  0  0  0  2  0  0
    0.8720   -0.3329    2.5746 C   0  0  0  0  0  0  0  0  0  3  0  0
    2.0398   -0.9818    2.9978 C   0  0  0  0  0  0  0  0  0  4  0  0
    2.0941   -2.0594    2.9405 H   0  0  0  0  0  0  0  0  0 16  0  0
    3.1136   -0.2591    3.4827 C   0  0  0  0  0  0  0  0  0  5  0  0
    4.0211   -0.7478    3.8049 H   0  0  0  0  0  0  0  0  0 15  0  0
    2.9985    1.1160    3.5439 C   0  0  0  0  0  0  0  0  0  6  0  0
    1.8383    1.7552    3.1088 C   0  0  0  0  0  0  0  0  0  7  0  0
    0.7617    1.0517    2.6284 C   0  0  0  0  0  0  0  0  0  8  0  0
   -0.1327    1.5559    2.2930 H   0  0  0  0  0  0  0  0  0  9  0  0
    1.9759    3.1040    3.2633 O   0  0  0  0  0  0  0  0  0 10  0  0
    3.2691    3.2961    3.8080 C   0  0  0  0  0  0  0  0  0 11  0  0
    3.1878    3.8030    4.7772 H   0  0  0  0  0  0  0  0  0 13  0  0
    3.8706    3.9211    3.1251 H   0  0  0  0  0  0  0  0  0 14  0  0
    3.9090    2.0449    3.9710 O   0  0  0  0  0  0  0  0  0 12  0  0
   -1.0336   -0.4458    1.8189 H   0  0  0  0  0  0  0  0  0 17  0  0
   -1.7640   -2.7166    1.3105 C   0  0  0  0  0  0  0  0  0 18  0  0
   -2.5507   -2.1680    1.8235 H   0  0  0  0  0  0  0  0  0 19  0  0
   -1.9052   -3.7945    1.3991 H   0  0  0  0  0  0  0  0  0 20  0  0
   -1.9332   -2.3729   -0.4719 S   0  0  0  0  0  0  0  0  0 21  0  0
   -2.3466   -0.6912   -0.4328 C   0  0  0  0  0  0  0  0  0 22  0  0
   -2.3254    0.1113    0.6167 N   0  0  0  0  0  0  0  0  0 23  0  0
   -2.7497    1.2974    0.1716 N   0  0  0  0  0  0  0  0  0 24  0  0
   -3.0135    1.2564   -1.0591 N   0  0  0  0  0  0  0  0  0 25  0  0
   -2.7833    0.0073   -1.4990 N   0  0  0  0  0  0  0  0  0 26  0  0
   -2.8935   -0.4004   -2.8670 C   0  0  0  0  0  0  0  0  0 27  0  0
   -1.5646   -0.1963   -3.5661 C   0  0  0  0  0  0  0  0  0 28  0  0
   -1.1881    1.0842   -3.9451 C   0  0  0  0  0  0  0  0  0 29  0  0
   -1.8470    1.9191   -3.7502 H   0  0  0  0  0  0  0  0  0 38  0  0
    0.0454    1.2874   -4.5379 C   0  0  0  0  0  0  0  0  0 30  0  0
    0.3400    2.2817   -4.8366 H   0  0  0  0  0  0  0  0  0 37  0  0
    0.8937    0.2151   -4.7688 C   0  0  0  0  0  0  0  0  0 31  0  0
    1.8506    0.3727   -5.2379 H   0  0  0  0  0  0  0  0  0 36  0  0
    0.5120   -1.0584   -4.3889 C   0  0  0  0  0  0  0  0  0 32  0  0
    1.1687   -1.8887   -4.5637 H   0  0  0  0  0  0  0  0  0 35  0  0
   -0.7116   -1.2692   -3.7858 C   0  0  0  0  0  0  0  0  0 33  0  0
   -1.0148   -2.2679   -3.4860 H   0  0  0  0  0  0  0  0  0 34  0  0
   -3.6690    0.2248   -3.3301 H   0  0  0  0  0  0  0  0  0 39  0  0
   -3.1952   -1.4545   -2.8867 H   0  0  0  0  0  0  0  0  0 40  0  0
  1  2  2  0
  2  3  1  0
  3  4  1  0
  4  5  4  0
  5  6  1  0
  5  7  4  0
  7  8  1  0
  7  9  4  0
  9 10  4  0
 10 11  4  0
 11 12  1  0
 10 13  1  0
 13 14  1  0
 14 15  1  0
 14 16  1  0
 14 17  1  0
  3 18  1  0
  2 19  1  0
 19 20  1  0
 19 21  1  0
 19 22  1  0
 22 23  1  0
 23 24  4  0
 24 25  4  0
 25 26  4  0
 26 27  4  0
 27 28  1  0
 28 29  1  0
 29 30  4  0
 30 31  1  0
 30 32  4  0
 32 33  1  0
 32 34  4  0
 34 35  1  0
 34 36  4  0
 36 37  1  0
 36 38  4  0
 38 39  1  0
 28 40  1  0
 28 41  1  0
 11  4  4  0
 27 23  4  0
 38 29  4  0
 17  9  1  0
M  END
>  <sample_id>  (106)
train::O=C(CSc1nnnn1Cc1ccccc1)Nc1ccc2c(c1)OCO2__gen0000

>  <partition>  (106)
BAT_EXTERNAL_CONFIRM

>  <method>  (106)
BA_seed193

>  <candidate>  (106)
primary

$$$$
train::O=C(CSc1nnnn1Cc1ccccc1)Nc1ccc2c(c1)OCO2__gen0001
     RDKit          3D

 41 44  0  0  0  0  0  0  0  0999 V2000
   -2.2160   -1.2208   -2.6922 O   0  0  0  0  0  0  0  0  0  0  0  0
   -1.9311   -0.7592   -1.6094 C   0  0  0  0  0  0  0  0  0  1  0  0
   -1.6603    0.5556   -1.3533 N   0  0  0  0  0  0  0  0  0  2  0  0
   -1.5984    1.6249   -2.2416 C   0  0  0  0  0  0  0  0  0  3  0  0
   -1.9600    1.5166   -3.5939 C   0  0  0  0  0  0  0  0  0  4  0  0
   -2.3033    0.5641   -3.9594 H   0  0  0  0  0  0  0  0  0 16  0  0
   -1.8993    2.6064   -4.4417 C   0  0  0  0  0  0  0  0  0  5  0  0
   -2.1862    2.5242   -5.4772 H   0  0  0  0  0  0  0  0  0 15  0  0
   -1.4667    3.8062   -3.9199 C   0  0  0  0  0  0  0  0  0  6  0  0
   -1.1001    3.9228   -2.5859 C   0  0  0  0  0  0  0  0  0  7  0  0
   -1.1503    2.8441   -1.7318 C   0  0  0  0  0  0  0  0  0  8  0  0
   -0.8760    2.9341   -0.6860 H   0  0  0  0  0  0  0  0  0  9  0  0
   -0.7042    5.2037   -2.3250 O   0  0  0  0  0  0  0  0  0 10  0  0
   -0.8367    5.9027   -3.5478 C   0  0  0  0  0  0  0  0  0 11  0  0
   -1.5445    6.7320   -3.4299 H   0  0  0  0  0  0  0  0  0 13  0  0
    0.1420    6.2976   -3.8527 H   0  0  0  0  0  0  0  0  0 14  0  0
   -1.3102    5.0110   -4.5380 O   0  0  0  0  0  0  0  0  0 12  0  0
   -1.3769    0.7792   -0.4009 H   0  0  0  0  0  0  0  0  0 17  0  0
   -1.8639   -1.6239   -0.3558 C   0  0  0  0  0  0  0  0  0 18  0  0
   -2.3724   -2.5643   -0.5565 H   0  0  0  0  0  0  0  0  0 19  0  0
   -2.2963   -1.1229    0.5125 H   0  0  0  0  0  0  0  0  0 20  0  0
   -0.1467   -2.0928    0.0642 S   0  0  0  0  0  0  0  0  0 21  0  0
    0.3500   -0.6701    0.9183 C   0  0  0  0  0  0  0  0  0 22  0  0
   -0.3194    0.4419    1.1072 N   0  0  0  0  0  0  0  0  0 23  0  0
    0.4714    1.2401    1.8133 N   0  0  0  0  0  0  0  0  0 24  0  0
    1.5768    0.6786    2.0691 N   0  0  0  0  0  0  0  0  0 25  0  0
    1.5651   -0.5438    1.5084 N   0  0  0  0  0  0  0  0  0 26  0  0
    2.6242   -1.4951    1.6327 C   0  0  0  0  0  0  0  0  0 27  0  0
    2.2490   -2.5482    2.6428 C   0  0  0  0  0  0  0  0  0 28  0  0
    1.9910   -3.8520    2.2465 C   0  0  0  0  0  0  0  0  0 29  0  0
    2.0538   -4.1179    1.2019 H   0  0  0  0  0  0  0  0  0 38  0  0
    1.6296   -4.8043    3.1824 C   0  0  0  0  0  0  0  0  0 30  0  0
    1.4118   -5.8120    2.8671 H   0  0  0  0  0  0  0  0  0 37  0  0
    1.5156   -4.4527    4.5197 C   0  0  0  0  0  0  0  0  0 31  0  0
    1.2464   -5.2030    5.2548 H   0  0  0  0  0  0  0  0  0 36  0  0
    1.7960   -3.1533    4.9237 C   0  0  0  0  0  0  0  0  0 32  0  0
    1.6945   -2.8894    5.9648 H   0  0  0  0  0  0  0  0  0 35  0  0
    2.1425   -2.2012    3.9836 C   0  0  0  0  0  0  0  0  0 33  0  0
    2.3480   -1.1828    4.2879 H   0  0  0  0  0  0  0  0  0 34  0  0
    2.8017   -1.9411    0.6469 H   0  0  0  0  0  0  0  0  0 39  0  0
    3.5096   -0.9350    1.9514 H   0  0  0  0  0  0  0  0  0 40  0  0
  1  2  2  0
  2  3  1  0
  3  4  1  0
  4  5  4  0
  5  6  1  0
  5  7  4  0
  7  8  1  0
  7  9  4  0
  9 10  4  0
 10 11  4  0
 11 12  1  0
 10 13  1  0
 13 14  1  0
 14 15  1  0
 14 16  1  0
 14 17  1  0
  3 18  1  0
  2 19  1  0
 19 20  1  0
 19 21  1  0
 19 22  1  0
 22 23  1  0
 23 24  4  0
 24 25  4  0
 25 26  4  0
 26 27  4  0
 27 28  1  0
 28 29  1  0
 29 30  4  0
 30 31  1  0
 30 32  4  0
 32 33  1  0
 32 34  4  0
 34 35  1  0
 34 36  4  0
 36 37  1  0
 36 38  4  0
 38 39  1  0
 28 40  1  0
 28 41  1  0
 11  4  4  0
 27 23  4  0
 38 29  4  0
 17  9  1  0
M  END
>  <sample_id>  (107)
train::O=C(CSc1nnnn1Cc1ccccc1)Nc1ccc2c(c1)OCO2__gen0001

>  <partition>  (107)
BAT_EXTERNAL_CONFIRM

>  <method>  (107)
BA_seed193

>  <candidate>  (107)
primary

$$$$
train::O=C(CSc1nnnn1Cc1ccccc1)Nc1ccc2c(c1)OCO2__gen0002
     RDKit          3D

 41 44  0  0  0  0  0  0  0  0999 V2000
    3.2500   -1.1700    1.1241 O   0  0  0  0  0  0  0  0  0  0  0  0
    2.5958   -1.1819    0.1020 C   0  0  0  0  0  0  0  0  0  1  0  0
    2.1466   -0.1076   -0.5811 N   0  0  0  0  0  0  0  0  0  2  0  0
    2.3063    1.2494   -0.2949 C   0  0  0  0  0  0  0  0  0  3  0  0
    3.0790    1.7057    0.7811 C   0  0  0  0  0  0  0  0  0  4  0  0
    3.5676    0.9845    1.4190 H   0  0  0  0  0  0  0  0  0 16  0  0
    3.2234    3.0579    1.0285 C   0  0  0  0  0  0  0  0  0  5  0  0
    3.8283    3.4148    1.8502 H   0  0  0  0  0  0  0  0  0 15  0  0
    2.5909    3.9409    0.1792 C   0  0  0  0  0  0  0  0  0  6  0  0
    1.8209    3.4870   -0.8911 C   0  0  0  0  0  0  0  0  0  7  0  0
    1.6675    2.1467   -1.1505 C   0  0  0  0  0  0  0  0  0  8  0  0
    1.0697    1.7990   -1.9812 H   0  0  0  0  0  0  0  0  0  9  0  0
    1.3074    4.5576   -1.5629 O   0  0  0  0  0  0  0  0  0 10  0  0
    1.7754    5.7043   -0.8871 C   0  0  0  0  0  0  0  0  0 11  0  0
    0.9172    6.2833   -0.5192 H   0  0  0  0  0  0  0  0  0 13  0  0
    2.3626    6.3301   -1.5708 H   0  0  0  0  0  0  0  0  0 14  0  0
    2.5822    5.3119    0.2097 O   0  0  0  0  0  0  0  0  0 12  0  0
    1.5549   -0.3008   -1.3937 H   0  0  0  0  0  0  0  0  0 17  0  0
    2.1830   -2.5050   -0.5490 C   0  0  0  0  0  0  0  0  0 18  0  0
    2.7781   -3.3123   -0.1231 H   0  0  0  0  0  0  0  0  0 19  0  0
    2.2785   -2.4702   -1.6329 H   0  0  0  0  0  0  0  0  0 20  0  0
    0.4520   -2.9674   -0.1685 S   0  0  0  0  0  0  0  0  0 21  0  0
   -0.3930   -2.0479   -1.3550 C   0  0  0  0  0  0  0  0  0 22  0  0
    0.1069   -1.1491   -2.1892 N   0  0  0  0  0  0  0  0  0 23  0  0
   -0.9195   -0.7155   -2.9205 N   0  0  0  0  0  0  0  0  0 24  0  0
   -1.9931   -1.2995   -2.6025 N   0  0  0  0  0  0  0  0  0 25  0  0
   -1.7142   -2.1568   -1.6033 N   0  0  0  0  0  0  0  0  0 26  0  0
   -2.7055   -2.9607   -0.9302 C   0  0  0  0  0  0  0  0  0 27  0  0
   -2.9850   -2.3682    0.4269 C   0  0  0  0  0  0  0  0  0 28  0  0
   -3.6822   -1.1711    0.5290 C   0  0  0  0  0  0  0  0  0 29  0  0
   -4.0466   -0.6936   -0.3778 H   0  0  0  0  0  0  0  0  0 38  0  0
   -3.9182   -0.5975    1.7673 C   0  0  0  0  0  0  0  0  0 30  0  0
   -4.4694    0.3242    1.8376 H   0  0  0  0  0  0  0  0  0 37  0  0
   -3.4558   -1.2182    2.9147 C   0  0  0  0  0  0  0  0  0 31  0  0
   -3.6309   -0.7822    3.8873 H   0  0  0  0  0  0  0  0  0 36  0  0
   -2.7493   -2.4117    2.8228 C   0  0  0  0  0  0  0  0  0 32  0  0
   -2.3805   -2.8918    3.7169 H   0  0  0  0  0  0  0  0  0 35  0  0
   -2.5149   -2.9874    1.5805 C   0  0  0  0  0  0  0  0  0 33  0  0
   -1.9630   -3.9133    1.5093 H   0  0  0  0  0  0  0  0  0 34  0  0
   -2.3252   -3.9881   -0.8409 H   0  0  0  0  0  0  0  0  0 39  0  0
   -3.5975   -2.9293   -1.5606 H   0  0  0  0  0  0  0  0  0 40  0  0
  1  2  2  0
  2  3  1  0
  3  4  1  0
  4  5  4  0
  5  6  1  0
  5  7  4  0
  7  8  1  0
  7  9  4  0
  9 10  4  0
 10 11  4  0
 11 12  1  0
 10 13  1  0
 13 14  1  0
 14 15  1  0
 14 16  1  0
 14 17  1  0
  3 18  1  0
  2 19  1  0
 19 20  1  0
 19 21  1  0
 19 22  1  0
 22 23  1  0
 23 24  4  0
 24 25  4  0
 25 26  4  0
 26 27  4  0
 27 28  1  0
 28 29  1  0
 29 30  4  0
 30 31  1  0
 30 32  4  0
 32 33  1  0
 32 34  4  0
 34 35  1  0
 34 36  4  0
 36 37  1  0
 36 38  4  0
 38 39  1  0
 28 40  1  0
 28 41  1  0
 11  4  4  0
 27 23  4  0
 38 29  4  0
 17  9  1  0
M  END
>  <sample_id>  (108)
train::O=C(CSc1nnnn1Cc1ccccc1)Nc1ccc2c(c1)OCO2__gen0002

>  <partition>  (108)
BAT_EXTERNAL_CONFIRM

>  <method>  (108)
BA_seed193

>  <candidate>  (108)
primary

$$$$
train::COc1cc(NS(=O)(=O)c2ccc(NC(=S)NC(=O)CC(C)C)cc2)nc(OC)n1__gen0000
     RDKit          3D

 53 54  0  0  0  0  0  0  0  0999 V2000
    0.2759    4.5894   -0.4919 C   0  0  0  0  0  0  0  0  0  0  0  0
   -0.6623    5.1037   -0.2806 H   0  0  0  0  0  0  0  0  0  1  0  0
    0.0513    3.6357   -0.9713 H   0  0  0  0  0  0  0  0  0  2  0  0
    0.9404    5.2110   -1.1012 H   0  0  0  0  0  0  0  0  0  3  0  0
    0.9823    4.3625    0.7181 O   0  0  0  0  0  0  0  0  0  4  0  0
    0.3826    3.6100    1.6194 C   0  0  0  0  0  0  0  0  0  5  0  0
   -0.8331    3.1485    1.3858 N   0  0  0  0  0  0  0  0  0  6  0  0
   -1.3935    2.4084    2.3149 C   0  0  0  0  0  0  0  0  0  7  0  0
   -2.6070    1.9589    2.0314 O   0  0  0  0  0  0  0  0  0 48  0  0
   -3.3149    1.2788    3.0446 C   0  0  0  0  0  0  0  0  0 49  0  0
   -3.4306    1.9144    3.9219 H   0  0  0  0  0  0  0  0  0 50  0  0
   -2.7933    0.3690    3.3439 H   0  0  0  0  0  0  0  0  0 51  0  0
   -4.2868    1.0428    2.6137 H   0  0  0  0  0  0  0  0  0 52  0  0
   -0.8387    2.0602    3.4732 N   0  0  0  0  0  0  0  0  0  8  0  0
    0.3810    2.5053    3.7127 C   0  0  0  0  0  0  0  0  0  9  0  0
    1.0092    2.0764    4.8500 N   0  0  0  0  0  0  0  0  0 12  0  0
    0.3845    1.6028    5.4862 H   0  0  0  0  0  0  0  0  0 13  0  0
    2.5111    1.3055    4.6545 S   0  0  2  0  0  6  0  0  0 14  0  0
    2.6259    0.4121    5.7688 O   0  0  0  0  0  0  0  0  0 15  0  0
    3.5325    2.2844    4.4372 O   0  0  0  0  0  0  0  0  0 16  0  0
    2.1610    0.4254    3.1361 C   0  0  0  0  0  0  0  0  0 17  0  0
    2.6407    0.9173    1.9322 C   0  0  0  0  0  0  0  0  0 18  0  0
    3.4018    1.6875    1.9380 H   0  0  0  0  0  0  0  0  0 47  0  0
    2.1083    0.4445    0.7454 C   0  0  0  0  0  0  0  0  0 19  0  0
    2.4808    0.8172   -0.1935 H   0  0  0  0  0  0  0  0  0 46  0  0
    1.1016   -0.5267    0.7806 C   0  0  0  0  0  0  0  0  0 20  0  0
    0.4840   -1.0114   -0.3712 N   0  0  0  0  0  0  0  0  0 25  0  0
    0.2799   -0.4174   -1.5671 C   0  0  0  0  0  0  0  0  0 26  0  0
    0.7210    1.0886   -2.0638 S   0  0  0  0  0  0  0  0  0 27  0  0
   -0.4111   -1.1622   -2.4921 N   0  0  0  0  0  0  0  0  0 28  0  0
   -0.9755   -2.4138   -2.3552 C   0  0  0  0  0  0  0  0  0 29  0  0
   -0.9059   -3.0536   -1.3216 O   0  0  0  0  0  0  0  0  0 30  0  0
   -1.6580   -2.9088   -3.5975 C   0  0  0  0  0  0  0  0  0 31  0  0
   -2.2167   -3.8062   -3.3316 H   0  0  0  0  0  0  0  0  0 32  0  0
   -2.3462   -2.1447   -3.9615 H   0  0  0  0  0  0  0  0  0 33  0  0
   -0.6321   -3.2607   -4.7066 C   0  0  1  0  0  0  0  0  0 34  0  0
    0.2410   -4.4281   -4.2790 C   0  0  0  0  0  0  0  0  0 35  0  0
    0.9906   -4.6480   -5.0347 H   0  0  0  0  0  0  0  0  0 36  0  0
   -0.3555   -5.3132   -4.0950 H   0  0  0  0  0  0  0  0  0 37  0  0
    0.7621   -4.2016   -3.3480 H   0  0  0  0  0  0  0  0  0 38  0  0
   -1.3795   -3.5890   -5.9952 C   0  0  0  0  0  0  0  0  0 39  0  0
   -2.0676   -4.4048   -5.8419 H   0  0  0  0  0  0  0  0  0 40  0  0
   -1.9385   -2.7275   -6.3375 H   0  0  0  0  0  0  0  0  0 41  0  0
   -0.6692   -3.8756   -6.7594 H   0  0  0  0  0  0  0  0  0 42  0  0
    0.0078   -2.3924   -4.8934 H   0  0  0  0  0  0  0  0  0 43  0  0
   -0.4898   -0.7165   -3.4031 H   0  0  0  0  0  0  0  0  0 44  0  0
   -0.0177   -1.8952   -0.2641 H   0  0  0  0  0  0  0  0  0 45  0  0
    0.6730   -1.0384    2.0028 C   0  0  0  0  0  0  0  0  0 21  0  0
   -0.0860   -1.8098    2.0208 H   0  0  0  0  0  0  0  0  0 24  0  0
    1.2003   -0.5648    3.1784 C   0  0  0  0  0  0  0  0  0 22  0  0
    0.8543   -0.9203    4.1360 H   0  0  0  0  0  0  0  0  0 23  0  0
    1.0619    3.3112    2.8051 C   0  0  0  0  0  0  0  0  0 10  0  0
    2.0627    3.6596    3.0065 H   0  0  0  0  0  0  0  0  0 11  0  0
  1  2  1  0
  1  3  1  0
  1  4  1  0
  1  5  1  0
  5  6  1  0
  6  7  4  0
  7  8  4  0
  8  9  1  0
  9 10  1  0
 10 11  1  0
 10 12  1  0
 10 13  1  0
  8 14  4  0
 14 15  4  0
 15 16  1  0
 16 17  1  0
 18 16  1  1
 18 19  2  0
 18 20  2  0
 18 21  1  0
 21 22  4  0
 22 23  1  0
 22 24  4  0
 24 25  1  0
 24 26  4  0
 26 27  1  0
 27 28  1  0
 28 29  2  0
 28 30  1  0
 30 31  1  0
 31 32  2  0
 31 33  1  0
 33 34  1  0
 33 35  1  0
 33 36  1  0
 36 37  1  0
 37 38  1  0
 37 39  1  0
 37 40  1  0
 36 41  1  0
 41 42  1  0
 41 43  1  0
 41 44  1  0
 36 45  1  6
 30 46  1  0
 27 47  1  0
 26 48  4  0
 48 49  1  0
 48 50  4  0
 50 51  1  0
 15 52  4  0
 52 53  1  0
 52  6  4  0
 50 21  4  0
M  END
>  <sample_id>  (109)
train::COc1cc(NS(=O)(=O)c2ccc(NC(=S)NC(=O)CC(C)C)cc2)nc(OC)n1__gen0000

>  <partition>  (109)
BAT_EXTERNAL_CONFIRM

>  <method>  (109)
BA_seed193

>  <candidate>  (109)
primary

$$$$
train::COc1cc(NS(=O)(=O)c2ccc(NC(=S)NC(=O)CC(C)C)cc2)nc(OC)n1__gen0001
     RDKit          3D

 53 54  0  0  0  0  0  0  0  0999 V2000
    2.8367    4.0685   -5.9687 C   0  0  0  0  0  0  0  0  0  0  0  0
    2.9518    5.0640   -5.5349 H   0  0  0  0  0  0  0  0  0  1  0  0
    1.7874    3.7715   -5.8980 H   0  0  0  0  0  0  0  0  0  2  0  0
    3.1652    4.0664   -7.0047 H   0  0  0  0  0  0  0  0  0  3  0  0
    3.6666    3.1289   -5.2861 O   0  0  0  0  0  0  0  0  0  4  0  0
    3.4413    2.9919   -3.9887 C   0  0  0  0  0  0  0  0  0  5  0  0
    2.4595    3.6830   -3.4206 N   0  0  0  0  0  0  0  0  0  6  0  0
    2.2599    3.4900   -2.1280 C   0  0  0  0  0  0  0  0  0  7  0  0
    1.3099    4.2334   -1.6060 O   0  0  0  0  0  0  0  0  0 48  0  0
    1.1970    4.3280   -0.1935 C   0  0  0  0  0  0  0  0  0 49  0  0
    2.1807    4.2796    0.2890 H   0  0  0  0  0  0  0  0  0 50  0  0
    0.7521    5.2937    0.0209 H   0  0  0  0  0  0  0  0  0 51  0  0
    0.5718    3.5248    0.1821 H   0  0  0  0  0  0  0  0  0 52  0  0
    2.9475    2.6455   -1.3501 N   0  0  0  0  0  0  0  0  0  8  0  0
    3.9281    1.9773   -1.9173 C   0  0  0  0  0  0  0  0  0  9  0  0
    4.6456    1.1720   -1.0903 N   0  0  0  0  0  0  0  0  0 12  0  0
    5.4465    0.6827   -1.4418 H   0  0  0  0  0  0  0  0  0 13  0  0
    4.4095    1.1666    0.5869 S   0  0  2  0  0  6  0  0  0 14  0  0
    4.5755    2.4595    1.1309 O   0  0  0  0  0  0  0  0  0 15  0  0
    5.3168    0.1268    1.0348 O   0  0  0  0  0  0  0  0  0 16  0  0
    2.7449    0.5855    0.7385 C   0  0  0  0  0  0  0  0  0 17  0  0
    2.4180   -0.6401    0.1830 C   0  0  0  0  0  0  0  0  0 18  0  0
    3.1641   -1.2042   -0.3358 H   0  0  0  0  0  0  0  0  0 47  0  0
    1.1328   -1.1226    0.3018 C   0  0  0  0  0  0  0  0  0 19  0  0
    0.8627   -2.0634   -0.1332 H   0  0  0  0  0  0  0  0  0 46  0  0
    0.1699   -0.3727    0.9674 C   0  0  0  0  0  0  0  0  0 20  0  0
   -1.1028   -0.9508    1.0525 N   0  0  0  0  0  0  0  0  0 25  0  0
   -2.2649   -0.5210    1.5398 C   0  0  0  0  0  0  0  0  0 26  0  0
   -2.6524    0.9546    2.1797 S   0  0  0  0  0  0  0  0  0 27  0  0
   -3.3108   -1.4093    1.4678 N   0  0  0  0  0  0  0  0  0 28  0  0
   -3.2981   -2.6860    0.9476 C   0  0  0  0  0  0  0  0  0 29  0  0
   -2.3268   -3.1797    0.4124 O   0  0  0  0  0  0  0  0  0 30  0  0
   -4.6204   -3.4217    1.1442 C   0  0  0  0  0  0  0  0  0 31  0  0
   -5.4446   -2.7658    0.8754 H   0  0  0  0  0  0  0  0  0 32  0  0
   -4.6069   -4.2966    0.4997 H   0  0  0  0  0  0  0  0  0 33  0  0
   -4.7665   -3.8783    2.6129 C   0  0  1  0  0  0  0  0  0 34  0  0
   -6.1383   -4.5069    2.8132 C   0  0  0  0  0  0  0  0  0 35  0  0
   -6.9075   -3.7725    2.5972 H   0  0  0  0  0  0  0  0  0 36  0  0
   -6.2433   -4.8328    3.8385 H   0  0  0  0  0  0  0  0  0 37  0  0
   -6.2731   -5.3492    2.1528 H   0  0  0  0  0  0  0  0  0 38  0  0
   -3.6476   -4.8849    2.9787 C   0  0  0  0  0  0  0  0  0 39  0  0
   -3.7359   -5.7664    2.3380 H   0  0  0  0  0  0  0  0  0 40  0  0
   -2.6714   -4.4578    2.8207 H   0  0  0  0  0  0  0  0  0 41  0  0
   -3.7586   -5.2084    3.9956 H   0  0  0  0  0  0  0  0  0 42  0  0
   -4.6749   -3.0285    3.2643 H   0  0  0  0  0  0  0  0  0 43  0  0
   -4.1760   -1.0458    1.8436 H   0  0  0  0  0  0  0  0  0 44  0  0
   -1.1671   -1.8774    0.6373 H   0  0  0  0  0  0  0  0  0 45  0  0
    0.5128    0.8530    1.5539 C   0  0  0  0  0  0  0  0  0 21  0  0
   -0.2388    1.4430    2.0496 H   0  0  0  0  0  0  0  0  0 24  0  0
    1.8060    1.3296    1.4182 C   0  0  0  0  0  0  0  0  0 22  0  0
    2.0934    2.2774    1.8399 H   0  0  0  0  0  0  0  0  0 23  0  0
    4.2387    2.0939   -3.2712 C   0  0  0  0  0  0  0  0  0 10  0  0
    5.0338    1.5517   -3.7399 H   0  0  0  0  0  0  0  0  0 11  0  0
  1  2  1  0
  1  3  1  0
  1  4  1  0
  1  5  1  0
  5  6  1  0
  6  7  4  0
  7  8  4  0
  8  9  1  0
  9 10  1  0
 10 11  1  0
 10 12  1  0
 10 13  1  0
  8 14  4  0
 14 15  4  0
 15 16  1  0
 16 17  1  0
 18 16  1  6
 18 19  2  0
 18 20  2  0
 18 21  1  0
 21 22  4  0
 22 23  1  0
 22 24  4  0
 24 25  1  0
 24 26  4  0
 26 27  1  0
 27 28  1  0
 28 29  2  0
 28 30  1  0
 30 31  1  0
 31 32  2  0
 31 33  1  0
 33 34  1  0
 33 35  1  0
 33 36  1  0
 36 37  1  0
 37 38  1  0
 37 39  1  0
 37 40  1  0
 36 41  1  0
 41 42  1  0
 41 43  1  0
 41 44  1  0
 36 45  1  1
 30 46  1  0
 27 47  1  0
 26 48  4  0
 48 49  1  0
 48 50  4  0
 50 51  1  0
 15 52  4  0
 52 53  1  0
 52  6  4  0
 50 21  4  0
M  END
>  <sample_id>  (110)
train::COc1cc(NS(=O)(=O)c2ccc(NC(=S)NC(=O)CC(C)C)cc2)nc(OC)n1__gen0001

>  <partition>  (110)
BAT_EXTERNAL_CONFIRM

>  <method>  (110)
BA_seed193

>  <candidate>  (110)
primary

$$$$
train::COc1cc(NS(=O)(=O)c2ccc(NC(=S)NC(=O)CC(C)C)cc2)nc(OC)n1__gen0002
     RDKit          3D

 53 54  0  0  0  0  0  0  0  0999 V2000
    2.9503   -0.4462    4.6628 C   0  0  0  0  0  0  0  0  0  0  0  0
    2.4557   -0.3194    5.6254 H   0  0  0  0  0  0  0  0  0  1  0  0
    2.4293   -1.1822    4.0454 H   0  0  0  0  0  0  0  0  0  2  0  0
    3.9894   -0.7719    4.8135 H   0  0  0  0  0  0  0  0  0  3  0  0
    2.9149    0.8284    4.0531 O   0  0  0  0  0  0  0  0  0  4  0  0
    3.4631    0.9240    2.8357 C   0  0  0  0  0  0  0  0  0  5  0  0
    4.0069   -0.1371    2.2949 N   0  0  0  0  0  0  0  0  0  6  0  0
    4.5389   -0.0120    1.0993 C   0  0  0  0  0  0  0  0  0  7  0  0
    5.0877   -1.1147    0.6020 O   0  0  0  0  0  0  0  0  0 48  0  0
    5.6215   -1.0025   -0.7084 C   0  0  0  0  0  0  0  0  0 49  0  0
    6.4144   -0.2423   -0.7628 H   0  0  0  0  0  0  0  0  0 50  0  0
    4.8454   -0.7429   -1.4381 H   0  0  0  0  0  0  0  0  0 51  0  0
    6.0245   -1.9786   -0.9454 H   0  0  0  0  0  0  0  0  0 52  0  0
    4.5743    1.1027    0.3751 N   0  0  0  0  0  0  0  0  0  8  0  0
    4.0111    2.1836    0.9264 C   0  0  0  0  0  0  0  0  0  9  0  0
    4.0212    3.3263    0.1624 N   0  0  0  0  0  0  0  0  0 12  0  0
    4.4329    3.2088   -0.7489 H   0  0  0  0  0  0  0  0  0 13  0  0
    2.6878    4.3732    0.1924 S   0  0  2  0  0  6  0  0  0 14  0  0
    2.7829    5.1266   -1.0175 O   0  0  0  0  0  0  0  0  0 15  0  0
    2.6733    5.0737    1.4404 O   0  0  0  0  0  0  0  0  0 16  0  0
    1.3213    3.2239    0.1162 C   0  0  0  0  0  0  0  0  0 17  0  0
    0.5201    3.0219    1.2224 C   0  0  0  0  0  0  0  0  0 18  0  0
    0.6907    3.6255    2.1021 H   0  0  0  0  0  0  0  0  0 47  0  0
   -0.4775    2.0664    1.1931 C   0  0  0  0  0  0  0  0  0 19  0  0
   -1.0806    1.8935    2.0635 H   0  0  0  0  0  0  0  0  0 46  0  0
   -0.6510    1.2936    0.0376 C   0  0  0  0  0  0  0  0  0 20  0  0
   -1.6206    0.3222   -0.1078 N   0  0  0  0  0  0  0  0  0 25  0  0
   -2.4864   -0.2102    0.7776 C   0  0  0  0  0  0  0  0  0 26  0  0
   -2.6677    0.1141    2.3870 S   0  0  0  0  0  0  0  0  0 27  0  0
   -3.3430   -1.1799    0.2482 N   0  0  0  0  0  0  0  0  0 28  0  0
   -3.4168   -1.6740   -1.0293 C   0  0  0  0  0  0  0  0  0 29  0  0
   -2.6948   -1.3071   -1.9358 O   0  0  0  0  0  0  0  0  0 30  0  0
   -4.5052   -2.7136   -1.1890 C   0  0  0  0  0  0  0  0  0 31  0  0
   -4.1930   -3.5822   -0.6059 H   0  0  0  0  0  0  0  0  0 32  0  0
   -5.4303   -2.3420   -0.7388 H   0  0  0  0  0  0  0  0  0 33  0  0
   -4.7413   -3.1249   -2.6398 C   0  0  1  0  0  0  0  0  0 34  0  0
   -5.5911   -4.3870   -2.7032 C   0  0  0  0  0  0  0  0  0 35  0  0
   -6.5456   -4.2231   -2.2031 H   0  0  0  0  0  0  0  0  0 36  0  0
   -5.7751   -4.6710   -3.7351 H   0  0  0  0  0  0  0  0  0 37  0  0
   -5.0846   -5.2112   -2.2116 H   0  0  0  0  0  0  0  0  0 38  0  0
   -5.4280   -1.9767   -3.4047 C   0  0  0  0  0  0  0  0  0 39  0  0
   -5.5851   -2.2603   -4.4385 H   0  0  0  0  0  0  0  0  0 40  0  0
   -4.8068   -1.0820   -3.3780 H   0  0  0  0  0  0  0  0  0 41  0  0
   -6.3950   -1.7516   -2.9532 H   0  0  0  0  0  0  0  0  0 42  0  0
   -3.7751   -3.3120   -3.1084 H   0  0  0  0  0  0  0  0  0 43  0  0
   -3.9923   -1.5451    0.9421 H   0  0  0  0  0  0  0  0  0 44  0  0
   -1.6841   -0.1138   -1.0323 H   0  0  0  0  0  0  0  0  0 45  0  0
    0.1511    1.5405   -1.0830 C   0  0  0  0  0  0  0  0  0 21  0  0
   -0.0047    0.9649   -1.9873 H   0  0  0  0  0  0  0  0  0 24  0  0
    1.1378    2.5028   -1.0407 C   0  0  0  0  0  0  0  0  0 22  0  0
    1.7744    2.6988   -1.8964 H   0  0  0  0  0  0  0  0  0 23  0  0
    3.4336    2.1646    2.1894 C   0  0  0  0  0  0  0  0  0 10  0  0
    3.0212    3.0374    2.6349 H   0  0  0  0  0  0  0  0  0 11  0  0
  1  2  1  0
  1  3  1  0
  1  4  1  0
  1  5  1  0
  5  6  1  0
  6  7  4  0
  7  8  4  0
  8  9  1  0
  9 10  1  0
 10 11  1  0
 10 12  1  0
 10 13  1  0
  8 14  4  0
 14 15  4  0
 15 16  1  0
 16 17  1  0
 18 16  1  1
 18 19  2  0
 18 20  2  0
 18 21  1  0
 21 22  4  0
 22 23  1  0
 22 24  4  0
 24 25  1  0
 24 26  4  0
 26 27  1  0
 27 28  1  0
 28 29  2  0
 28 30  1  0
 30 31  1  0
 31 32  2  0
 31 33  1  0
 33 34  1  0
 33 35  1  0
 33 36  1  0
 36 37  1  0
 37 38  1  0
 37 39  1  0
 37 40  1  0
 36 41  1  0
 41 42  1  0
 41 43  1  0
 41 44  1  0
 36 45  1  6
 30 46  1  0
 27 47  1  0
 26 48  4  0
 48 49  1  0
 48 50  4  0
 50 51  1  0
 15 52  4  0
 52 53  1  0
 52  6  4  0
 50 21  4  0
M  END
>  <sample_id>  (111)
train::COc1cc(NS(=O)(=O)c2ccc(NC(=S)NC(=O)CC(C)C)cc2)nc(OC)n1__gen0002

>  <partition>  (111)
BAT_EXTERNAL_CONFIRM

>  <method>  (111)
BA_seed193

>  <candidate>  (111)
primary

$$$$
train::COc1c[nH]n(C2CCCCC2)c(=O)c1=O__gen0000
     RDKit          3D

 32 33  0  0  0  0  0  0  0  0999 V2000
   -0.1159    2.9327    4.6170 C   0  0  0  0  0  0  0  0  0  0  0  0
   -1.1335    3.2471    4.4009 H   0  0  0  0  0  0  0  0  0  1  0  0
   -0.1411    1.9877    5.1705 H   0  0  0  0  0  0  0  0  0  2  0  0
    0.3992    3.6933    5.1857 H   0  0  0  0  0  0  0  0  0  3  0  0
    0.6471    2.8021    3.4163 O   0  0  0  0  0  0  0  0  0  4  0  0
    0.2783    1.9001    2.4876 C   0  0  0  0  0  0  0  0  0  5  0  0
    1.1011    1.8412    1.3769 C   0  0  0  0  0  0  0  0  0  6  0  0
    1.9387    2.5129    1.3137 H   0  0  0  0  0  0  0  0  0 31  0  0
    0.8966    0.9641    0.4064 N   0  0  0  0  0  0  0  0  0  7  0  0
    1.4379    1.0111   -0.4569 H   0  0  0  0  0  0  0  0  0 30  0  0
   -0.1436    0.0877    0.3862 N   0  0  0  0  0  0  0  0  0  8  0  0
   -0.3092   -0.7748   -0.7579 C   0  0  1  0  0  0  0  0  0 13  0  0
   -1.2300   -1.3216   -0.5626 H   0  0  0  0  0  0  0  0  0 29  0  0
   -0.4664    0.0289   -2.0512 C   0  0  0  0  0  0  0  0  0 14  0  0
    0.4782    0.5624   -2.2895 H   0  0  0  0  0  0  0  0  0 27  0  0
   -1.2531    0.7692   -1.9306 H   0  0  0  0  0  0  0  0  0 28  0  0
   -0.7794   -0.8946   -3.2119 C   0  0  0  0  0  0  0  0  0 15  0  0
   -1.7288   -1.4127   -3.0081 H   0  0  0  0  0  0  0  0  0 25  0  0
   -0.8889   -0.3441   -4.1342 H   0  0  0  0  0  0  0  0  0 26  0  0
    0.3225   -1.9597   -3.3651 C   0  0  0  0  0  0  0  0  0 16  0  0
    1.2623   -1.4480   -3.6215 H   0  0  0  0  0  0  0  0  0 23  0  0
    0.0698   -2.6373   -4.1674 H   0  0  0  0  0  0  0  0  0 24  0  0
    0.5135   -2.7203   -2.0695 C   0  0  0  0  0  0  0  0  0 17  0  0
    1.3304   -3.4462   -2.1714 H   0  0  0  0  0  0  0  0  0 21  0  0
   -0.3972   -3.2814   -1.8299 H   0  0  0  0  0  0  0  0  0 22  0  0
    0.8263   -1.7841   -0.9020 C   0  0  0  0  0  0  0  0  0 18  0  0
    0.9229   -2.3539    0.0276 H   0  0  0  0  0  0  0  0  0 19  0  0
    1.7835   -1.2680   -1.1032 H   0  0  0  0  0  0  0  0  0 20  0  0
   -1.0521    0.0372    1.4435 C   0  0  0  0  0  0  0  0  0  9  0  0
   -1.9314   -0.7997    1.4194 O   0  0  0  0  0  0  0  0  0 10  0  0
   -0.9016    1.0251    2.5419 C   0  0  0  0  0  0  0  0  0 11  0  0
   -1.7361    1.0438    3.4394 O   0  0  0  0  0  0  0  0  0 12  0  0
  1  2  1  0
  1  3  1  0
  1  4  1  0
  1  5  1  0
  5  6  1  0
  6  7  4  0
  7  8  1  0
  7  9  4  0
  9 10  1  0
  9 11  4  0
 11 12  1  0
 12 13  1  1
 12 14  1  0
 14 15  1  0
 14 16  1  0
 14 17  1  0
 17 18  1  0
 17 19  1  0
 17 20  1  0
 20 21  1  0
 20 22  1  0
 20 23  1  0
 23 24  1  0
 23 25  1  0
 23 26  1  0
 26 27  1  0
 26 28  1  0
 11 29  4  0
 29 30  2  0
 29 31  4  0
 31 32  2  0
 31  6  4  0
 26 12  1  0
M  END
>  <sample_id>  (112)
train::COc1c[nH]n(C2CCCCC2)c(=O)c1=O__gen0000

>  <partition>  (112)
BAT_EXTERNAL_CONFIRM

>  <method>  (112)
BA_seed193

>  <candidate>  (112)
primary

$$$$
train::COc1c[nH]n(C2CCCCC2)c(=O)c1=O__gen0001
     RDKit          3D

 32 33  0  0  0  0  0  0  0  0999 V2000
   -4.1883   -2.2402    1.9752 C   0  0  0  0  0  0  0  0  0  0  0  0
   -5.1236   -2.7327    1.6848 H   0  0  0  0  0  0  0  0  0  1  0  0
   -4.3885   -1.2684    2.4425 H   0  0  0  0  0  0  0  0  0  2  0  0
   -3.6320   -2.8660    2.6749 H   0  0  0  0  0  0  0  0  0  3  0  0
   -3.4688   -2.0973    0.7612 O   0  0  0  0  0  0  0  0  0  4  0  0
   -2.2246   -1.5324    0.7796 C   0  0  0  0  0  0  0  0  0  5  0  0
   -1.6190   -1.4623   -0.4502 C   0  0  0  0  0  0  0  0  0  6  0  0
   -2.1267   -1.8549   -1.3017 H   0  0  0  0  0  0  0  0  0 31  0  0
   -0.4194   -0.8877   -0.6227 N   0  0  0  0  0  0  0  0  0  7  0  0
    0.0872   -1.1287   -1.4647 H   0  0  0  0  0  0  0  0  0 30  0  0
    0.3465   -0.4208    0.4201 N   0  0  0  0  0  0  0  0  0  8  0  0
    1.6523    0.1142    0.2039 C   0  0  1  0  0  0  0  0  0 13  0  0
    2.2720   -0.3551    0.9757 H   0  0  0  0  0  0  0  0  0 29  0  0
    2.2577   -0.1513   -1.1833 C   0  0  0  0  0  0  0  0  0 14  0  0
    3.3341    0.0670   -1.1105 H   0  0  0  0  0  0  0  0  0 27  0  0
    2.1762   -1.2204   -1.4219 H   0  0  0  0  0  0  0  0  0 28  0  0
    1.6605    0.7162   -2.3005 C   0  0  0  0  0  0  0  0  0 15  0  0
    2.2190    0.5134   -3.2300 H   0  0  0  0  0  0  0  0  0 25  0  0
    0.6280    0.4736   -2.4819 H   0  0  0  0  0  0  0  0  0 26  0  0
    1.7809    2.1876   -1.9467 C   0  0  0  0  0  0  0  0  0 16  0  0
    1.3273    2.7990   -2.7294 H   0  0  0  0  0  0  0  0  0 23  0  0
    2.8212    2.4591   -1.8529 H   0  0  0  0  0  0  0  0  0 24  0  0
    1.0531    2.4552   -0.6312 C   0  0  0  0  0  0  0  0  0 17  0  0
    1.1025    3.5006   -0.3712 H   0  0  0  0  0  0  0  0  0 21  0  0
    0.0035    2.1762   -0.7384 H   0  0  0  0  0  0  0  0  0 22  0  0
    1.6860    1.6228    0.4814 C   0  0  0  0  0  0  0  0  0 18  0  0
    2.7389    1.9282    0.5959 H   0  0  0  0  0  0  0  0  0 19  0  0
    1.1980    1.8242    1.4308 H   0  0  0  0  0  0  0  0  0 20  0  0
   -0.1708   -0.5008    1.7310 C   0  0  0  0  0  0  0  0  0  9  0  0
    0.5429   -0.0821    2.6270 O   0  0  0  0  0  0  0  0  0 10  0  0
   -1.5475   -1.0237    1.9557 C   0  0  0  0  0  0  0  0  0 11  0  0
   -1.9783   -1.0124    3.0979 O   0  0  0  0  0  0  0  0  0 12  0  0
  1  2  1  0
  1  3  1  0
  1  4  1  0
  1  5  1  0
  5  6  1  0
  6  7  4  0
  7  8  1  0
  7  9  4  0
  9 10  1  0
  9 11  4  0
 11 12  1  0
 12 13  1  1
 12 14  1  0
 14 15  1  0
 14 16  1  0
 14 17  1  0
 17 18  1  0
 17 19  1  0
 17 20  1  0
 20 21  1  0
 20 22  1  0
 20 23  1  0
 23 24  1  0
 23 25  1  0
 23 26  1  0
 26 27  1  0
 26 28  1  0
 11 29  4  0
 29 30  2  0
 29 31  4  0
 31 32  2  0
 31  6  4  0
 26 12  1  0
M  END
>  <sample_id>  (113)
train::COc1c[nH]n(C2CCCCC2)c(=O)c1=O__gen0001

>  <partition>  (113)
BAT_EXTERNAL_CONFIRM

>  <method>  (113)
BA_seed193

>  <candidate>  (113)
primary

$$$$
train::COc1c[nH]n(C2CCCCC2)c(=O)c1=O__gen0002
     RDKit          3D

 32 33  0  0  0  0  0  0  0  0999 V2000
   -3.1109   -4.0714    1.0084 C   0  0  0  0  0  0  0  0  0  0  0  0
   -3.6557   -3.4588    1.7183 H   0  0  0  0  0  0  0  0  0  1  0  0
   -3.7889   -4.7513    0.4885 H   0  0  0  0  0  0  0  0  0  2  0  0
   -2.3404   -4.6421    1.5406 H   0  0  0  0  0  0  0  0  0  3  0  0
   -2.5181   -3.2823   -0.0231 O   0  0  0  0  0  0  0  0  0  4  0  0
   -1.6316   -2.3142    0.2866 C   0  0  0  0  0  0  0  0  0  5  0  0
   -1.1144   -1.6358   -0.7757 C   0  0  0  0  0  0  0  0  0  6  0  0
   -1.3846   -1.9066   -1.7649 H   0  0  0  0  0  0  0  0  0 31  0  0
   -0.2393   -0.5855   -0.6509 N   0  0  0  0  0  0  0  0  0  7  0  0
   -0.2910    0.1590   -1.3410 H   0  0  0  0  0  0  0  0  0 30  0  0
    0.1604   -0.1864    0.5890 N   0  0  0  0  0  0  0  0  0  8  0  0
    1.2055    0.8506    0.6371 C   0  0  1  0  0  0  0  0  0 13  0  0
    1.6790    0.6577    1.6106 H   0  0  0  0  0  0  0  0  0 29  0  0
    2.2714    0.7049   -0.4544 C   0  0  0  0  0  0  0  0  0 14  0  0
    2.4830   -0.3555   -0.6090 H   0  0  0  0  0  0  0  0  0 27  0  0
    3.1746    1.1816   -0.0829 H   0  0  0  0  0  0  0  0  0 28  0  0
    1.9299    1.3713   -1.7993 C   0  0  0  0  0  0  0  0  0 15  0  0
    1.1869    0.7848   -2.3434 H   0  0  0  0  0  0  0  0  0 25  0  0
    2.8339    1.3754   -2.4107 H   0  0  0  0  0  0  0  0  0 26  0  0
    1.4248    2.7951   -1.6148 C   0  0  0  0  0  0  0  0  0 16  0  0
    2.2189    3.3951   -1.1908 H   0  0  0  0  0  0  0  0  0 23  0  0
    1.1494    3.2263   -2.5788 H   0  0  0  0  0  0  0  0  0 24  0  0
    0.2267    2.8102   -0.6748 C   0  0  0  0  0  0  0  0  0 17  0  0
   -0.1387    3.8419   -0.5584 H   0  0  0  0  0  0  0  0  0 21  0  0
   -0.6077    2.2429   -1.1160 H   0  0  0  0  0  0  0  0  0 22  0  0
    0.6128    2.2633    0.6908 C   0  0  0  0  0  0  0  0  0 18  0  0
   -0.2427    2.2500    1.3637 H   0  0  0  0  0  0  0  0  0 19  0  0
    1.3727    2.9117    1.1252 H   0  0  0  0  0  0  0  0  0 20  0  0
   -0.2235   -0.7893    1.7629 C   0  0  0  0  0  0  0  0  0  9  0  0
    0.2139   -0.4407    2.8299 O   0  0  0  0  0  0  0  0  0 10  0  0
   -1.2273   -1.9387    1.6663 C   0  0  0  0  0  0  0  0  0 11  0  0
   -1.6293   -2.4634    2.6710 O   0  0  0  0  0  0  0  0  0 12  0  0
  1  2  1  0
  1  3  1  0
  1  4  1  0
  1  5  1  0
  5  6  1  0
  6  7  4  0
  7  8  1  0
  7  9  4  0
  9 10  1  0
  9 11  4  0
 11 12  1  0
 12 13  1  1
 12 14  1  0
 14 15  1  0
 14 16  1  0
 14 17  1  0
 17 18  1  0
 17 19  1  0
 17 20  1  0
 20 21  1  0
 20 22  1  0
 20 23  1  0
 23 24  1  0
 23 25  1  0
 23 26  1  0
 26 27  1  0
 26 28  1  0
 11 29  4  0
 29 30  2  0
 29 31  4  0
 31 32  2  0
 31  6  4  0
 26 12  1  0
M  END
>  <sample_id>  (114)
train::COc1c[nH]n(C2CCCCC2)c(=O)c1=O__gen0002

>  <partition>  (114)
BAT_EXTERNAL_CONFIRM

>  <method>  (114)
BA_seed193

>  <candidate>  (114)
primary

$$$$
train::CCCCOc1ccc(N(CC(=O)NCC2CCCO2)C(=O)CCC(=O)Nc2cc(C)ccn2)cc1__gen0000
     RDKit          3D

 72 74  0  0  0  0  0  0  0  0999 V2000
   -0.3856   -5.0409    5.9088 C   0  0  0  0  0  0  0  0  0  0  0  0
   -0.3173   -3.7161    5.1707 C   0  0  0  0  0  0  0  0  0  1  0  0
    0.3157   -3.8780    3.7806 C   0  0  0  0  0  0  0  0  0  2  0  0
    0.4038   -2.5494    3.0397 C   0  0  0  0  0  0  0  0  0  3  0  0
    0.8590   -2.8140    1.6982 O   0  0  0  0  0  0  0  0  0  4  0  0
    1.1165   -1.7742    0.8811 C   0  0  0  0  0  0  0  0  0  5  0  0
    0.8720   -0.4307    1.1760 C   0  0  0  0  0  0  0  0  0  6  0  0
    0.4243   -0.1364    2.1111 H   0  0  0  0  0  0  0  0  0 62  0  0
    1.1938    0.5598    0.2649 C   0  0  0  0  0  0  0  0  0  7  0  0
    1.0029    1.5950    0.5155 H   0  0  0  0  0  0  0  0  0 61  0  0
    1.7508    0.2282   -0.9719 C   0  0  0  0  0  0  0  0  0  8  0  0
    2.1237    1.2549   -1.8653 N   0  0  0  0  0  0  0  0  0 13  0  0
    1.6727    1.4557   -3.1214 C   0  0  0  0  0  0  0  0  0 14  0  0
    2.0739    2.3815   -3.7942 O   0  0  0  0  0  0  0  0  0 15  0  0
    0.6126    0.5131   -3.6610 C   0  0  0  0  0  0  0  0  0 16  0  0
    0.8661   -0.5495   -3.5098 H   0  0  0  0  0  0  0  0  0 17  0  0
    0.5750    0.6936   -4.7407 H   0  0  0  0  0  0  0  0  0 18  0  0
   -0.7783    0.8147   -3.0638 C   0  0  0  0  0  0  0  0  0 19  0  0
   -1.1743   -0.0799   -1.8903 C   0  0  0  0  0  0  0  0  0 20  0  0
   -1.5246    0.3646   -0.8188 O   0  0  0  0  0  0  0  0  0 21  0  0
   -1.1012   -1.4073   -2.1814 N   0  0  0  0  0  0  0  0  0 22  0  0
   -1.3511   -2.4989   -1.3900 C   0  0  0  0  0  0  0  0  0 23  0  0
   -0.9814   -3.6620   -1.9407 N   0  0  0  0  0  0  0  0  0 24  0  0
   -1.1749   -4.7673   -1.2533 C   0  0  0  0  0  0  0  0  0 25  0  0
   -0.8572   -5.6732   -1.7451 H   0  0  0  0  0  0  0  0  0 35  0  0
   -1.7559   -4.8054    0.0077 C   0  0  0  0  0  0  0  0  0 26  0  0
   -1.9074   -5.7376    0.5068 H   0  0  0  0  0  0  0  0  0 34  0  0
   -2.1641   -3.6080    0.5895 C   0  0  0  0  0  0  0  0  0 27  0  0
   -2.8043   -3.5924    1.9192 C   0  0  0  0  0  0  0  0  0 30  0  0
   -3.7804   -4.1029    1.8757 H   0  0  0  0  0  0  0  0  0 31  0  0
   -2.9970   -2.5714    2.2573 H   0  0  0  0  0  0  0  0  0 32  0  0
   -2.1915   -4.0929    2.6578 H   0  0  0  0  0  0  0  0  0 33  0  0
   -1.9373   -2.4355   -0.1216 C   0  0  0  0  0  0  0  0  0 28  0  0
   -2.1983   -1.4733    0.2921 H   0  0  0  0  0  0  0  0  0 29  0  0
   -0.7797   -1.6790   -3.1095 H   0  0  0  0  0  0  0  0  0 36  0  0
   -0.8172    1.8488   -2.7252 H   0  0  0  0  0  0  0  0  0 37  0  0
   -1.5385    0.6726   -3.8301 H   0  0  0  0  0  0  0  0  0 38  0  0
    3.1173    2.2081   -1.3498 C   0  0  0  0  0  0  0  0  0 39  0  0
    3.6283    1.7522   -0.5110 H   0  0  0  0  0  0  0  0  0 40  0  0
    3.8053    2.4512   -2.1575 H   0  0  0  0  0  0  0  0  0 41  0  0
    2.4618    3.5083   -0.8703 C   0  0  0  0  0  0  0  0  0 42  0  0
    2.2468    3.7259    0.3162 O   0  0  0  0  0  0  0  0  0 43  0  0
    2.1528    4.3508   -1.8744 N   0  0  0  0  0  0  0  0  0 44  0  0
    2.2024    3.9768   -2.8247 H   0  0  0  0  0  0  0  0  0 45  0  0
    1.3554    5.5303   -1.6876 C   0  0  0  0  0  0  0  0  0 46  0  0
    1.3400    5.7242   -0.6192 H   0  0  0  0  0  0  0  0  0 47  0  0
   -0.0876    5.2792   -2.2233 C   0  0  2  0  0  0  0  0  0 48  0  0
   -0.0506    5.2599   -3.3217 H   0  0  0  0  0  0  0  0  0 59  0  0
   -1.0582    6.3205   -1.6649 C   0  0  0  0  0  0  0  0  0 49  0  0
   -1.9079    6.4179   -2.3491 H   0  0  0  0  0  0  0  0  0 50  0  0
   -0.6043    7.3014   -1.5528 H   0  0  0  0  0  0  0  0  0 58  0  0
   -1.4970    5.7140   -0.3361 C   0  0  0  0  0  0  0  0  0 51  0  0
   -0.9697    6.1650    0.5039 H   0  0  0  0  0  0  0  0  0 52  0  0
   -2.5668    5.8198   -0.1539 H   0  0  0  0  0  0  0  0  0 57  0  0
   -1.1290    4.2156   -0.4514 C   0  0  0  0  0  0  0  0  0 53  0  0
   -0.3599    3.9325    0.2603 H   0  0  0  0  0  0  0  0  0 54  0  0
   -1.9874    3.5541   -0.3208 H   0  0  0  0  0  0  0  0  0 55  0  0
   -0.6360    4.0504   -1.7766 O   0  0  0  0  0  0  0  0  0 56  0  0
    1.7678    6.3620   -2.2489 H   0  0  0  0  0  0  0  0  0 60  0  0
    2.0325   -1.1124   -1.2503 C   0  0  0  0  0  0  0  0  0  9  0  0
    2.5055   -1.3806   -2.1807 H   0  0  0  0  0  0  0  0  0 12  0  0
    1.7013   -2.0926   -0.3426 C   0  0  0  0  0  0  0  0  0 10  0  0
    1.9015   -3.1316   -0.5678 H   0  0  0  0  0  0  0  0  0 11  0  0
   -0.5876   -2.0734    2.9909 H   0  0  0  0  0  0  0  0  0 63  0  0
    1.1051   -1.8767    3.5340 H   0  0  0  0  0  0  0  0  0 64  0  0
   -0.2751   -4.5763    3.1867 H   0  0  0  0  0  0  0  0  0 65  0  0
    1.3194   -4.2878    3.8601 H   0  0  0  0  0  0  0  0  0 66  0  0
    0.2702   -2.9956    5.7385 H   0  0  0  0  0  0  0  0  0 67  0  0
   -1.3347   -3.3063    5.0565 H   0  0  0  0  0  0  0  0  0 68  0  0
   -0.9620   -5.7669    5.3448 H   0  0  0  0  0  0  0  0  0 69  0  0
    0.6157   -5.4249    6.0472 H   0  0  0  0  0  0  0  0  0 70  0  0
   -0.8611   -4.9015    6.8775 H   0  0  0  0  0  0  0  0  0 71  0  0
  1  2  1  0
  2  3  1  0
  3  4  1  0
  4  5  1  0
  5  6  1  0
  6  7  4  0
  7  8  1  0
  7  9  4  0
  9 10  1  0
  9 11  4  0
 11 12  1  0
 12 13  1  0
 13 14  2  0
 13 15  1  0
 15 16  1  0
 15 17  1  0
 15 18  1  0
 18 19  1  0
 19 20  2  0
 19 21  1  0
 21 22  1  0
 22 23  4  0
 23 24  4  0
 24 25  1  0
 24 26  4  0
 26 27  1  0
 26 28  4  0
 28 29  1  0
 29 30  1  0
 29 31  1  0
 29 32  1  0
 28 33  4  0
 33 34  1  0
 21 35  1  0
 18 36  1  0
 18 37  1  0
 12 38  1  0
 38 39  1  0
 38 40  1  0
 38 41  1  0
 41 42  2  0
 41 43  1  0
 43 44  1  0
 43 45  1  0
 45 46  1  0
 45 47  1  0
 47 48  1  6
 47 49  1  0
 49 50  1  0
 49 51  1  0
 49 52  1  0
 52 53  1  0
 52 54  1  0
 52 55  1  0
 55 56  1  0
 55 57  1  0
 55 58  1  0
 45 59  1  0
 11 60  4  0
 60 61  1  0
 60 62  4  0
 62 63  1  0
  4 64  1  0
  4 65  1  0
  3 66  1  0
  3 67  1  0
  2 68  1  0
  2 69  1  0
  1 70  1  0
  1 71  1  0
  1 72  1  0
 62  6  4  0
 33 22  4  0
 58 47  1  0
M  END
>  <sample_id>  (115)
train::CCCCOc1ccc(N(CC(=O)NCC2CCCO2)C(=O)CCC(=O)Nc2cc(C)ccn2)cc1__gen0000

>  <partition>  (115)
BAT_EXTERNAL_CONFIRM

>  <method>  (115)
BA_seed193

>  <candidate>  (115)
primary

$$$$
train::CCCCOc1ccc(N(CC(=O)NCC2CCCO2)C(=O)CCC(=O)Nc2cc(C)ccn2)cc1__gen0001
     RDKit          3D

 72 74  0  0  0  0  0  0  0  0999 V2000
    4.8106    4.6647    3.5065 C   0  0  0  0  0  0  0  0  0  0  0  0
    4.5824    3.1587    3.5010 C   0  0  0  0  0  0  0  0  0  1  0  0
    3.2055    2.8320    4.0761 C   0  0  0  0  0  0  0  0  0  2  0  0
    2.9063    1.3266    4.0095 C   0  0  0  0  0  0  0  0  0  3  0  0
    2.9803    0.8099    2.6673 O   0  0  0  0  0  0  0  0  0  4  0  0
    1.9975    1.0434    1.7880 C   0  0  0  0  0  0  0  0  0  5  0  0
    0.8536    1.8139    2.0264 C   0  0  0  0  0  0  0  0  0  6  0  0
    0.6627    2.2684    2.9873 H   0  0  0  0  0  0  0  0  0 62  0  0
   -0.0670    2.0261    1.0156 C   0  0  0  0  0  0  0  0  0  7  0  0
   -0.9040    2.6923    1.1919 H   0  0  0  0  0  0  0  0  0 61  0  0
    0.1011    1.4516   -0.2417 C   0  0  0  0  0  0  0  0  0  8  0  0
   -0.8163    1.6814   -1.2856 N   0  0  0  0  0  0  0  0  0 13  0  0
   -2.1385    1.5949   -1.2793 C   0  0  0  0  0  0  0  0  0 14  0  0
   -2.8488    1.9363   -2.2006 O   0  0  0  0  0  0  0  0  0 15  0  0
   -2.8300    1.0248   -0.0437 C   0  0  0  0  0  0  0  0  0 16  0  0
   -3.8174    1.4762    0.0377 H   0  0  0  0  0  0  0  0  0 17  0  0
   -2.2703    1.1461    0.9027 H   0  0  0  0  0  0  0  0  0 18  0  0
   -3.0198   -0.4796   -0.2828 C   0  0  0  0  0  0  0  0  0 19  0  0
   -1.7071   -1.2269   -0.1318 C   0  0  0  0  0  0  0  0  0 20  0  0
   -1.0620   -1.6788   -1.0504 O   0  0  0  0  0  0  0  0  0 21  0  0
   -1.3431   -1.2892    1.1860 N   0  0  0  0  0  0  0  0  0 22  0  0
   -0.1740   -1.7718    1.7430 C   0  0  0  0  0  0  0  0  0 23  0  0
   -0.1637   -1.6560    3.0759 N   0  0  0  0  0  0  0  0  0 24  0  0
    0.9026   -2.0792    3.7312 C   0  0  0  0  0  0  0  0  0 25  0  0
    0.8668   -1.9808    4.8009 H   0  0  0  0  0  0  0  0  0 35  0  0
    2.0297   -2.5744    3.1086 C   0  0  0  0  0  0  0  0  0 26  0  0
    2.8823   -2.8981    3.6834 H   0  0  0  0  0  0  0  0  0 34  0  0
    2.0401   -2.6835    1.7147 C   0  0  0  0  0  0  0  0  0 27  0  0
    3.2426   -3.2017    0.9987 C   0  0  0  0  0  0  0  0  0 30  0  0
    3.3638   -4.2662    1.2007 H   0  0  0  0  0  0  0  0  0 31  0  0
    4.1325   -2.6895    1.3469 H   0  0  0  0  0  0  0  0  0 32  0  0
    3.1426   -3.0672   -0.0733 H   0  0  0  0  0  0  0  0  0 33  0  0
    0.9111   -2.2790    1.0181 C   0  0  0  0  0  0  0  0  0 28  0  0
    0.8502   -2.3510   -0.0473 H   0  0  0  0  0  0  0  0  0 29  0  0
   -1.9636   -0.9360    1.8848 H   0  0  0  0  0  0  0  0  0 36  0  0
   -3.7560   -0.8930    0.4018 H   0  0  0  0  0  0  0  0  0 37  0  0
   -3.3895   -0.6369   -1.3114 H   0  0  0  0  0  0  0  0  0 38  0  0
   -0.2692    1.9708   -2.6143 C   0  0  0  0  0  0  0  0  0 39  0  0
   -0.8524    2.7606   -3.0831 H   0  0  0  0  0  0  0  0  0 40  0  0
    0.7907    2.2674   -2.5226 H   0  0  0  0  0  0  0  0  0 41  0  0
   -0.3051    0.6970   -3.5044 C   0  0  0  0  0  0  0  0  0 42  0  0
    0.6710   -0.0040   -3.6730 O   0  0  0  0  0  0  0  0  0 43  0  0
   -1.5213    0.5115   -4.1107 N   0  0  0  0  0  0  0  0  0 44  0  0
   -2.2870    1.1036   -3.7977 H   0  0  0  0  0  0  0  0  0 45  0  0
   -1.8857   -0.7261   -4.7214 C   0  0  0  0  0  0  0  0  0 46  0  0
   -2.4480   -0.5128   -5.6321 H   0  0  0  0  0  0  0  0  0 47  0  0
   -2.8077   -1.5452   -3.7685 C   0  0  2  0  0  0  0  0  0 48  0  0
   -2.2887   -1.5517   -2.8043 H   0  0  0  0  0  0  0  0  0 59  0  0
   -3.1423   -2.9772   -4.1220 C   0  0  0  0  0  0  0  0  0 49  0  0
   -3.1819   -3.0893   -5.2201 H   0  0  0  0  0  0  0  0  0 50  0  0
   -2.4043   -3.6603   -3.7296 H   0  0  0  0  0  0  0  0  0 58  0  0
   -4.5370   -3.1552   -3.5311 C   0  0  0  0  0  0  0  0  0 51  0  0
   -5.0470   -3.9821   -3.9947 H   0  0  0  0  0  0  0  0  0 52  0  0
   -4.5032   -3.3175   -2.4520 H   0  0  0  0  0  0  0  0  0 57  0  0
   -5.1330   -1.7741   -3.7534 C   0  0  0  0  0  0  0  0  0 53  0  0
   -5.8561   -1.4727   -2.9789 H   0  0  0  0  0  0  0  0  0 54  0  0
   -5.6168   -1.7086   -4.7246 H   0  0  0  0  0  0  0  0  0 55  0  0
   -4.0717   -0.8629   -3.7003 O   0  0  0  0  0  0  0  0  0 56  0  0
   -0.9800   -1.2875   -4.9467 H   0  0  0  0  0  0  0  0  0 60  0  0
    1.2055    0.6379   -0.4669 C   0  0  0  0  0  0  0  0  0  9  0  0
    1.3327    0.1445   -1.4145 H   0  0  0  0  0  0  0  0  0 12  0  0
    2.1483    0.4635    0.5319 C   0  0  0  0  0  0  0  0  0 10  0  0
    3.0336   -0.1401    0.3539 H   0  0  0  0  0  0  0  0  0 11  0  0
    3.6686    0.7698    4.5523 H   0  0  0  0  0  0  0  0  0 63  0  0
    1.9231    1.0938    4.4294 H   0  0  0  0  0  0  0  0  0 64  0  0
    3.1455    3.1262    5.1249 H   0  0  0  0  0  0  0  0  0 65  0  0
    2.4392    3.3712    3.5154 H   0  0  0  0  0  0  0  0  0 66  0  0
    5.3524    2.6652    4.1053 H   0  0  0  0  0  0  0  0  0 67  0  0
    4.6447    2.7679    2.4909 H   0  0  0  0  0  0  0  0  0 68  0  0
    5.7874    4.8963    3.0949 H   0  0  0  0  0  0  0  0  0 69  0  0
    4.7424    5.0528    4.5127 H   0  0  0  0  0  0  0  0  0 70  0  0
    4.0601    5.1591    2.8983 H   0  0  0  0  0  0  0  0  0 71  0  0
  1  2  1  0
  2  3  1  0
  3  4  1  0
  4  5  1  0
  5  6  1  0
  6  7  4  0
  7  8  1  0
  7  9  4  0
  9 10  1  0
  9 11  4  0
 11 12  1  0
 12 13  1  0
 13 14  2  0
 13 15  1  0
 15 16  1  0
 15 17  1  0
 15 18  1  0
 18 19  1  0
 19 20  2  0
 19 21  1  0
 21 22  1  0
 22 23  4  0
 23 24  4  0
 24 25  1  0
 24 26  4  0
 26 27  1  0
 26 28  4  0
 28 29  1  0
 29 30  1  0
 29 31  1  0
 29 32  1  0
 28 33  4  0
 33 34  1  0
 21 35  1  0
 18 36  1  0
 18 37  1  0
 12 38  1  0
 38 39  1  0
 38 40  1  0
 38 41  1  0
 41 42  2  0
 41 43  1  0
 43 44  1  0
 43 45  1  0
 45 46  1  0
 45 47  1  0
 47 48  1  1
 47 49  1  0
 49 50  1  0
 49 51  1  0
 49 52  1  0
 52 53  1  0
 52 54  1  0
 52 55  1  0
 55 56  1  0
 55 57  1  0
 55 58  1  0
 45 59  1  0
 11 60  4  0
 60 61  1  0
 60 62  4  0
 62 63  1  0
  4 64  1  0
  4 65  1  0
  3 66  1  0
  3 67  1  0
  2 68  1  0
  2 69  1  0
  1 70  1  0
  1 71  1  0
  1 72  1  0
 62  6  4  0
 33 22  4  0
 58 47  1  0
M  END
>  <sample_id>  (116)
train::CCCCOc1ccc(N(CC(=O)NCC2CCCO2)C(=O)CCC(=O)Nc2cc(C)ccn2)cc1__gen0001

>  <partition>  (116)
BAT_EXTERNAL_CONFIRM

>  <method>  (116)
BA_seed193

>  <candidate>  (116)
primary

$$$$
train::CCCCOc1ccc(N(CC(=O)NCC2CCCO2)C(=O)CCC(=O)Nc2cc(C)ccn2)cc1__gen0002
     RDKit          3D

 72 74  0  0  0  0  0  0  0  0999 V2000
    3.6574   -2.7791   -3.4533 C   0  0  0  0  0  0  0  0  0  0  0  0
    4.2654   -1.4030   -3.6521 C   0  0  0  0  0  0  0  0  0  1  0  0
    4.9626   -0.8998   -2.3678 C   0  0  0  0  0  0  0  0  0  2  0  0
    5.0421    0.6184   -2.3475 C   0  0  0  0  0  0  0  0  0  3  0  0
    3.7605    1.1935   -2.2992 O   0  0  0  0  0  0  0  0  0  4  0  0
    3.0426    1.1643   -1.1477 C   0  0  0  0  0  0  0  0  0  5  0  0
    1.6886    1.4850   -1.2481 C   0  0  0  0  0  0  0  0  0  6  0  0
    1.3001    1.7671   -2.2204 H   0  0  0  0  0  0  0  0  0 62  0  0
    0.8549    1.4599   -0.1519 C   0  0  0  0  0  0  0  0  0  7  0  0
   -0.1886    1.7029   -0.2617 H   0  0  0  0  0  0  0  0  0 61  0  0
    1.3671    1.0786    1.0879 C   0  0  0  0  0  0  0  0  0  8  0  0
    0.5010    1.0417    2.2112 N   0  0  0  0  0  0  0  0  0 13  0  0
    0.3485    0.0423    3.0919 C   0  0  0  0  0  0  0  0  0 14  0  0
   -0.4079    0.1555    4.0337 O   0  0  0  0  0  0  0  0  0 15  0  0
    1.0358   -1.2728    2.8335 C   0  0  0  0  0  0  0  0  0 16  0  0
    1.2416   -1.7298    3.8178 H   0  0  0  0  0  0  0  0  0 17  0  0
    1.9661   -1.1886    2.2771 H   0  0  0  0  0  0  0  0  0 18  0  0
    0.0770   -2.1931    2.0553 C   0  0  0  0  0  0  0  0  0 19  0  0
    0.1434   -1.8808    0.5720 C   0  0  0  0  0  0  0  0  0 20  0  0
    1.1637   -2.0844   -0.0620 O   0  0  0  0  0  0  0  0  0 21  0  0
   -0.9989   -1.4014    0.0288 N   0  0  0  0  0  0  0  0  0 22  0  0
   -1.1961   -0.8786   -1.2348 C   0  0  0  0  0  0  0  0  0 23  0  0
   -2.3430   -0.1771   -1.3490 N   0  0  0  0  0  0  0  0  0 24  0  0
   -2.6021    0.3431   -2.5214 C   0  0  0  0  0  0  0  0  0 25  0  0
   -3.5289    0.9079   -2.5636 H   0  0  0  0  0  0  0  0  0 35  0  0
   -1.7925    0.2087   -3.6353 C   0  0  0  0  0  0  0  0  0 26  0  0
   -2.0743    0.6549   -4.5670 H   0  0  0  0  0  0  0  0  0 34  0  0
   -0.6403   -0.5554   -3.5304 C   0  0  0  0  0  0  0  0  0 27  0  0
    0.2436   -0.7588   -4.7179 C   0  0  0  0  0  0  0  0  0 30  0  0
   -0.3541   -0.9400   -5.6196 H   0  0  0  0  0  0  0  0  0 31  0  0
    0.9032   -1.6228   -4.5824 H   0  0  0  0  0  0  0  0  0 32  0  0
    0.8469    0.1351   -4.8874 H   0  0  0  0  0  0  0  0  0 33  0  0
   -0.3259   -1.1086   -2.3104 C   0  0  0  0  0  0  0  0  0 28  0  0
    0.5489   -1.7231   -2.1583 H   0  0  0  0  0  0  0  0  0 29  0  0
   -1.7746   -1.1879    0.6549 H   0  0  0  0  0  0  0  0  0 36  0  0
    0.3663   -3.2327    2.1876 H   0  0  0  0  0  0  0  0  0 37  0  0
   -0.9377   -2.0605    2.4363 H   0  0  0  0  0  0  0  0  0 38  0  0
   -0.2461    2.2940    2.4656 C   0  0  0  0  0  0  0  0  0 39  0  0
   -0.5260    2.3300    3.5037 H   0  0  0  0  0  0  0  0  0 40  0  0
    0.4001    3.1353    2.2051 H   0  0  0  0  0  0  0  0  0 41  0  0
   -1.5174    2.4121    1.6119 C   0  0  0  0  0  0  0  0  0 42  0  0
   -1.7854    3.4028    0.9773 O   0  0  0  0  0  0  0  0  0 43  0  0
   -2.2888    1.3072    1.6149 N   0  0  0  0  0  0  0  0  0 44  0  0
   -2.0124    0.5175    2.1960 H   0  0  0  0  0  0  0  0  0 45  0  0
   -3.6061    1.2821    1.0310 C   0  0  0  0  0  0  0  0  0 46  0  0
   -3.9109    2.2872    0.7763 H   0  0  0  0  0  0  0  0  0 47  0  0
   -4.6127    0.6945    2.0232 C   0  0  2  0  0  0  0  0  0 48  0  0
   -5.5406    0.4641    1.4832 H   0  0  0  0  0  0  0  0  0 59  0  0
   -4.8617    1.6120    3.2362 C   0  0  0  0  0  0  0  0  0 49  0  0
   -4.3758    2.5845    3.1076 H   0  0  0  0  0  0  0  0  0 50  0  0
   -5.9369    1.8097    3.3384 H   0  0  0  0  0  0  0  0  0 58  0  0
   -4.3297    0.8363    4.4241 C   0  0  0  0  0  0  0  0  0 51  0  0
   -4.8878    1.0008    5.3428 H   0  0  0  0  0  0  0  0  0 52  0  0
   -3.2942    1.0832    4.6181 H   0  0  0  0  0  0  0  0  0 57  0  0
   -4.4137   -0.6015    3.9271 C   0  0  0  0  0  0  0  0  0 53  0  0
   -3.6985   -1.2543    4.3984 H   0  0  0  0  0  0  0  0  0 54  0  0
   -5.4254   -1.0049    4.0712 H   0  0  0  0  0  0  0  0  0 55  0  0
   -4.1226   -0.5502    2.5463 O   0  0  0  0  0  0  0  0  0 56  0  0
   -3.5697    0.6730    0.1121 H   0  0  0  0  0  0  0  0  0 60  0  0
    2.7223    0.8283    1.2187 C   0  0  0  0  0  0  0  0  0  9  0  0
    3.1389    0.6214    2.2043 H   0  0  0  0  0  0  0  0  0 12  0  0
    3.5566    0.8445    0.1125 C   0  0  0  0  0  0  0  0  0 10  0  0
    4.5875    0.6076    0.2537 H   0  0  0  0  0  0  0  0  0 11  0  0
    5.6488    0.9800   -1.5181 H   0  0  0  0  0  0  0  0  0 63  0  0
    5.4699    0.9966   -3.2778 H   0  0  0  0  0  0  0  0  0 64  0  0
    4.3872   -1.2343   -1.5079 H   0  0  0  0  0  0  0  0  0 65  0  0
    5.9729   -1.3027   -2.2948 H   0  0  0  0  0  0  0  0  0 66  0  0
    3.4574   -0.7118   -3.9313 H   0  0  0  0  0  0  0  0  0 67  0  0
    4.9748   -1.4347   -4.4774 H   0  0  0  0  0  0  0  0  0 68  0  0
    2.9220   -2.7618   -2.6551 H   0  0  0  0  0  0  0  0  0 69  0  0
    3.1478   -3.1210   -4.3592 H   0  0  0  0  0  0  0  0  0 70  0  0
    4.4136   -3.5080   -3.1764 H   0  0  0  0  0  0  0  0  0 71  0  0
  1  2  1  0
  2  3  1  0
  3  4  1  0
  4  5  1  0
  5  6  1  0
  6  7  4  0
  7  8  1  0
  7  9  4  0
  9 10  1  0
  9 11  4  0
 11 12  1  0
 12 13  1  0
 13 14  2  0
 13 15  1  0
 15 16  1  0
 15 17  1  0
 15 18  1  0
 18 19  1  0
 19 20  2  0
 19 21  1  0
 21 22  1  0
 22 23  4  0
 23 24  4  0
 24 25  1  0
 24 26  4  0
 26 27  1  0
 26 28  4  0
 28 29  1  0
 29 30  1  0
 29 31  1  0
 29 32  1  0
 28 33  4  0
 33 34  1  0
 21 35  1  0
 18 36  1  0
 18 37  1  0
 12 38  1  0
 38 39  1  0
 38 40  1  0
 38 41  1  0
 41 42  2  0
 41 43  1  0
 43 44  1  0
 43 45  1  0
 45 46  1  0
 45 47  1  0
 47 48  1  6
 47 49  1  0
 49 50  1  0
 49 51  1  0
 49 52  1  0
 52 53  1  0
 52 54  1  0
 52 55  1  0
 55 56  1  0
 55 57  1  0
 55 58  1  0
 45 59  1  0
 11 60  4  0
 60 61  1  0
 60 62  4  0
 62 63  1  0
  4 64  1  0
  4 65  1  0
  3 66  1  0
  3 67  1  0
  2 68  1  0
  2 69  1  0
  1 70  1  0
  1 71  1  0
  1 72  1  0
 62  6  4  0
 33 22  4  0
 58 47  1  0
M  END
>  <sample_id>  (117)
train::CCCCOc1ccc(N(CC(=O)NCC2CCCO2)C(=O)CCC(=O)Nc2cc(C)ccn2)cc1__gen0002

>  <partition>  (117)
BAT_EXTERNAL_CONFIRM

>  <method>  (117)
BA_seed193

>  <candidate>  (117)
primary

$$$$
train::COc1cc(_C=C_C(=O)Nc2nc3ccc(S(=O)(=O)NC(C)C)cc3s2)cc(OC)c1OC__gen0000
     RDKit          3D

 58 60  0  0  0  0  0  0  0  0999 V2000
    5.1842    1.5319   -6.1990 C   0  0  0  0  0  0  0  0  0  0  0  0
    4.4490    2.3341   -6.0922 H   0  0  0  0  0  0  0  0  0  1  0  0
    6.1557    1.5906   -5.1765 O   0  0  0  0  0  0  0  0  0  2  0  0
    5.7620    1.4677   -3.8868 C   0  0  0  0  0  0  0  0  0  3  0  0
    4.4517    1.2809   -3.4899 C   0  0  0  0  0  0  0  0  0  4  0  0
    3.6566    1.2108   -4.2175 H   0  0  0  0  0  0  0  0  0 55  0  0
    4.1249    1.1619   -2.1448 C   0  0  0  0  0  0  0  0  0  5  0  0
    2.7384    0.9572   -1.7689 C   0  0  0  0  0  0  0  0  0 20  0  0
    2.1975    0.9499   -0.5409 C   0  0  0  0  0  0  0  0  0 21  0  0
    0.7885    0.7095   -0.3582 C   0  0  0  0  0  0  0  0  0 22  0  0
    0.0169    0.3697   -1.2451 O   0  0  0  0  0  0  0  0  0 23  0  0
    0.3219    0.8836    0.9029 N   0  0  0  0  0  0  0  0  0 24  0  0
   -0.9731    0.6553    1.2874 C   0  0  0  0  0  0  0  0  0 25  0  0
   -1.4238    0.8723    2.4575 N   0  0  0  0  0  0  0  0  0 26  0  0
   -2.7606    0.5809    2.5408 C   0  0  0  0  0  0  0  0  0 27  0  0
   -3.5420    0.7190    3.6801 C   0  0  0  0  0  0  0  0  0 28  0  0
   -3.1093    1.1130    4.5805 H   0  0  0  0  0  0  0  0  0 51  0  0
   -4.8735    0.3562    3.6172 C   0  0  0  0  0  0  0  0  0 29  0  0
   -5.5246    0.4630    4.4616 H   0  0  0  0  0  0  0  0  0 50  0  0
   -5.4091   -0.1474    2.4384 C   0  0  0  0  0  0  0  0  0 30  0  0
   -7.1108   -0.6864    2.4204 S   0  0  2  0  0  6  0  0  0 35  0  0
   -7.6562   -0.5499    1.0849 O   0  0  0  0  0  0  0  0  0 36  0  0
   -7.8066   -0.0554    3.5055 O   0  0  0  0  0  0  0  0  0 37  0  0
   -6.8934   -2.3155    2.7265 N   0  0  0  0  0  0  0  0  0 38  0  0
   -6.8351   -2.4801    3.7141 H   0  0  0  0  0  0  0  0  0 39  0  0
   -7.8191   -3.2446    2.0737 C   0  0  2  0  0  0  0  0  0 40  0  0
   -9.2054   -3.1786    2.7068 C   0  0  0  0  0  0  0  0  0 41  0  0
   -9.1578   -3.5330    3.7428 H   0  0  0  0  0  0  0  0  0 42  0  0
   -9.5595   -2.1562    2.6989 H   0  0  0  0  0  0  0  0  0 43  0  0
   -9.9094   -3.8047    2.1743 H   0  0  0  0  0  0  0  0  0 44  0  0
   -7.2220   -4.6509    2.0965 C   0  0  0  0  0  0  0  0  0 45  0  0
   -7.1674   -5.0146    3.1258 H   0  0  0  0  0  0  0  0  0 46  0  0
   -6.2351   -4.6520    1.6664 H   0  0  0  0  0  0  0  0  0 47  0  0
   -7.8570   -5.3266    1.5426 H   0  0  0  0  0  0  0  0  0 48  0  0
   -7.8834   -2.8933    1.0407 H   0  0  0  0  0  0  0  0  0 49  0  0
   -4.6642   -0.3037    1.2950 C   0  0  0  0  0  0  0  0  0 31  0  0
   -5.1234   -0.6906    0.4054 H   0  0  0  0  0  0  0  0  0 34  0  0
   -3.3378    0.0858    1.3447 C   0  0  0  0  0  0  0  0  0 32  0  0
   -2.1479    0.0595    0.0990 S   0  0  0  0  0  0  0  0  0 33  0  0
    0.9346    1.1947    1.6501 H   0  0  0  0  0  0  0  0  0 52  0  0
    2.7865    1.1256    0.3536 H   0  0  0  0  0  0  0  0  0 53  0  0
    2.0515    0.8062   -2.5871 H   0  0  0  0  0  0  0  0  0 54  0  0
    5.1442    1.2365   -1.1877 C   0  0  0  0  0  0  0  0  0  6  0  0
    4.8948    1.1421   -0.1473 H   0  0  0  0  0  0  0  0  0 19  0  0
    6.4645    1.4202   -1.5666 C   0  0  0  0  0  0  0  0  0  7  0  0
    7.4963    1.4921   -0.6659 O   0  0  0  0  0  0  0  0  0 14  0  0
    7.2066    1.3605    0.7102 C   0  0  0  0  0  0  0  0  0 15  0  0
    8.1704    1.4449    1.2079 H   0  0  0  0  0  0  0  0  0 16  0  0
    6.5413    2.1617    1.0515 H   0  0  0  0  0  0  0  0  0 17  0  0
    6.7491    0.3908    0.9268 H   0  0  0  0  0  0  0  0  0 18  0  0
    6.7901    1.5379   -2.9430 C   0  0  0  0  0  0  0  0  0  8  0  0
    8.0189    1.7125   -3.4878 O   0  0  0  0  0  0  0  0  0  9  0  0
    9.1981    1.7602   -2.7062 C   0  0  0  0  0  0  0  0  0 10  0  0
    9.9970    1.8812   -3.4271 H   0  0  0  0  0  0  0  0  0 11  0  0
    9.1900    2.5979   -2.0159 H   0  0  0  0  0  0  0  0  0 12  0  0
    9.3276    0.8289   -2.1476 H   0  0  0  0  0  0  0  0  0 13  0  0
    5.7284    1.6690   -7.1298 H   0  0  0  0  0  0  0  0  0 56  0  0
    4.6702    0.5680   -6.1988 H   0  0  0  0  0  0  0  0  0 57  0  0
  1  2  1  0
  1  3  1  0
  3  4  1  0
  4  5  4  0
  5  6  1  0
  5  7  4  0
  7  8  1  0
  8  9  2  0
  9 10  1  0
 10 11  2  0
 10 12  1  0
 12 13  1  0
 13 14  4  0
 14 15  4  0
 15 16  4  0
 16 17  1  0
 16 18  4  0
 18 19  1  0
 18 20  4  0
 20 21  1  0
 21 22  2  0
 21 23  2  0
 21 24  1  1
 24 25  1  0
 24 26  1  0
 26 27  1  0
 27 28  1  0
 27 29  1  0
 27 30  1  0
 26 31  1  0
 31 32  1  0
 31 33  1  0
 31 34  1  0
 26 35  1  6
 20 36  4  0
 36 37  1  0
 36 38  4  0
 38 39  4  0
 12 40  1  0
  9 41  1  0
  8 42  1  0
  7 43  4  0
 43 44  1  0
 43 45  4  0
 45 46  1  0
 46 47  1  0
 47 48  1  0
 47 49  1  0
 47 50  1  0
 45 51  4  0
 51 52  1  0
 52 53  1  0
 53 54  1  0
 53 55  1  0
 53 56  1  0
  1 57  1  0
  1 58  1  0
 51  4  4  0
 39 13  4  0
 38 15  4  0
M  END
>  <sample_id>  (118)
train::COc1cc(_C=C_C(=O)Nc2nc3ccc(S(=O)(=O)NC(C)C)cc3s2)cc(OC)c1OC__gen0000

>  <partition>  (118)
BAT_EXTERNAL_CONFIRM

>  <method>  (118)
BA_seed193

>  <candidate>  (118)
primary

$$$$
train::COc1cc(_C=C_C(=O)Nc2nc3ccc(S(=O)(=O)NC(C)C)cc3s2)cc(OC)c1OC__gen0001
     RDKit          3D

 58 60  0  0  0  0  0  0  0  0999 V2000
    1.1377   -0.1292    7.7255 C   0  0  0  0  0  0  0  0  0  0  0  0
    1.0237   -1.0693    7.1648 H   0  0  0  0  0  0  0  0  0  1  0  0
    2.3899    0.4622    7.4982 O   0  0  0  0  0  0  0  0  0  2  0  0
    2.7229    0.8247    6.2014 C   0  0  0  0  0  0  0  0  0  3  0  0
    1.8600    0.6524    5.1264 C   0  0  0  0  0  0  0  0  0  4  0  0
    0.8821    0.2220    5.2854 H   0  0  0  0  0  0  0  0  0 55  0  0
    2.2143    1.0179    3.8299 C   0  0  0  0  0  0  0  0  0  5  0  0
    1.2695    0.8060    2.7705 C   0  0  0  0  0  0  0  0  0 20  0  0
    1.4324    1.0529    1.4719 C   0  0  0  0  0  0  0  0  0 21  0  0
    0.3475    0.7702    0.5266 C   0  0  0  0  0  0  0  0  0 22  0  0
   -0.7367    0.3323    0.8428 O   0  0  0  0  0  0  0  0  0 23  0  0
    0.6495    1.0339   -0.8008 N   0  0  0  0  0  0  0  0  0 24  0  0
   -0.2511    0.8296   -1.8020 C   0  0  0  0  0  0  0  0  0 25  0  0
    0.0288    1.0250   -3.0302 N   0  0  0  0  0  0  0  0  0 26  0  0
   -1.0460    0.7268   -3.8519 C   0  0  0  0  0  0  0  0  0 27  0  0
   -1.0628    0.8280   -5.2229 C   0  0  0  0  0  0  0  0  0 28  0  0
   -0.1920    1.1720   -5.7506 H   0  0  0  0  0  0  0  0  0 51  0  0
   -2.2278    0.4856   -5.8915 C   0  0  0  0  0  0  0  0  0 29  0  0
   -2.3075    0.5607   -6.9633 H   0  0  0  0  0  0  0  0  0 50  0  0
   -3.3413    0.0676   -5.1773 C   0  0  0  0  0  0  0  0  0 30  0  0
   -4.8021   -0.3886   -6.1052 S   0  0  2  0  0  6  0  0  0 35  0  0
   -4.9374    0.4810   -7.2285 O   0  0  0  0  0  0  0  0  0 36  0  0
   -5.9026   -0.5424   -5.2025 O   0  0  0  0  0  0  0  0  0 37  0  0
   -4.3356   -1.8744   -6.7413 N   0  0  0  0  0  0  0  0  0 38  0  0
   -4.5098   -1.9055   -7.7265 H   0  0  0  0  0  0  0  0  0 39  0  0
   -4.7173   -3.0860   -6.0054 C   0  0  1  0  0  0  0  0  0 40  0  0
   -4.9724   -4.2363   -6.9752 C   0  0  0  0  0  0  0  0  0 41  0  0
   -5.7587   -3.9718   -7.6831 H   0  0  0  0  0  0  0  0  0 42  0  0
   -4.0683   -4.4783   -7.5172 H   0  0  0  0  0  0  0  0  0 43  0  0
   -5.2995   -5.1254   -6.4374 H   0  0  0  0  0  0  0  0  0 44  0  0
   -3.6236   -3.4348   -5.0052 C   0  0  0  0  0  0  0  0  0 45  0  0
   -3.4786   -2.6021   -4.3094 H   0  0  0  0  0  0  0  0  0 46  0  0
   -2.6886   -3.6070   -5.5319 H   0  0  0  0  0  0  0  0  0 47  0  0
   -3.8828   -4.3130   -4.4398 H   0  0  0  0  0  0  0  0  0 48  0  0
   -5.6371   -2.8562   -5.4551 H   0  0  0  0  0  0  0  0  0 49  0  0
   -3.3522   -0.0472   -3.8023 C   0  0  0  0  0  0  0  0  0 31  0  0
   -4.2440   -0.3540   -3.2862 H   0  0  0  0  0  0  0  0  0 34  0  0
   -2.1848    0.2824   -3.1365 C   0  0  0  0  0  0  0  0  0 32  0  0
   -1.8683    0.2127   -1.4229 S   0  0  0  0  0  0  0  0  0 33  0  0
    1.5461    1.3952   -1.0719 H   0  0  0  0  0  0  0  0  0 52  0  0
    2.3521    1.4590    1.0519 H   0  0  0  0  0  0  0  0  0 53  0  0
    0.3141    0.3963    3.0685 H   0  0  0  0  0  0  0  0  0 54  0  0
    3.4764    1.5895    3.6231 C   0  0  0  0  0  0  0  0  0  6  0  0
    3.7694    1.8684    2.6258 H   0  0  0  0  0  0  0  0  0 19  0  0
    4.3429    1.7597    4.6828 C   0  0  0  0  0  0  0  0  0  7  0  0
    5.5942    2.2981    4.5576 O   0  0  0  0  0  0  0  0  0 14  0  0
    6.0532    2.6905    3.2995 C   0  0  0  0  0  0  0  0  0 15  0  0
    6.0724    1.8517    2.5835 H   0  0  0  0  0  0  0  0  0 16  0  0
    5.4204    3.4782    2.8657 H   0  0  0  0  0  0  0  0  0 17  0  0
    7.0574    3.0736    3.4655 H   0  0  0  0  0  0  0  0  0 18  0  0
    3.9914    1.3805    5.9878 C   0  0  0  0  0  0  0  0  0  8  0  0
    4.9590    1.6221    6.9109 O   0  0  0  0  0  0  0  0  0  9  0  0
    4.7951    1.3295    8.2625 C   0  0  0  0  0  0  0  0  0 10  0  0
    3.9692    1.8931    8.7138 H   0  0  0  0  0  0  0  0  0 11  0  0
    4.6268    0.2597    8.4363 H   0  0  0  0  0  0  0  0  0 12  0  0
    5.7246    1.6332    8.7357 H   0  0  0  0  0  0  0  0  0 13  0  0
    0.3074    0.5504    7.4712 H   0  0  0  0  0  0  0  0  0 56  0  0
    1.0985   -0.3529    8.7886 H   0  0  0  0  0  0  0  0  0 57  0  0
  1  2  1  0
  1  3  1  0
  3  4  1  0
  4  5  4  0
  5  6  1  0
  5  7  4  0
  7  8  1  0
  8  9  2  0
  9 10  1  0
 10 11  2  0
 10 12  1  0
 12 13  1  0
 13 14  4  0
 14 15  4  0
 15 16  4  0
 16 17  1  0
 16 18  4  0
 18 19  1  0
 18 20  4  0
 20 21  1  0
 21 22  2  0
 21 23  2  0
 21 24  1  6
 24 25  1  0
 24 26  1  0
 26 27  1  0
 27 28  1  0
 27 29  1  0
 27 30  1  0
 26 31  1  0
 31 32  1  0
 31 33  1  0
 31 34  1  0
 26 35  1  6
 20 36  4  0
 36 37  1  0
 36 38  4  0
 38 39  4  0
 12 40  1  0
  9 41  1  0
  8 42  1  0
  7 43  4  0
 43 44  1  0
 43 45  4  0
 45 46  1  0
 46 47  1  0
 47 48  1  0
 47 49  1  0
 47 50  1  0
 45 51  4  0
 51 52  1  0
 52 53  1  0
 53 54  1  0
 53 55  1  0
 53 56  1  0
  1 57  1  0
  1 58  1  0
 51  4  4  0
 39 13  4  0
 38 15  4  0
M  END
>  <sample_id>  (119)
train::COc1cc(_C=C_C(=O)Nc2nc3ccc(S(=O)(=O)NC(C)C)cc3s2)cc(OC)c1OC__gen0001

>  <partition>  (119)
BAT_EXTERNAL_CONFIRM

>  <method>  (119)
BA_seed193

>  <candidate>  (119)
primary

$$$$
train::COc1cc(_C=C_C(=O)Nc2nc3ccc(S(=O)(=O)NC(C)C)cc3s2)cc(OC)c1OC__gen0002
     RDKit          3D

 58 60  0  0  0  0  0  0  0  0999 V2000
    2.3509    2.2580    7.2071 C   0  0  0  0  0  0  0  0  0  0  0  0
    2.8546    1.3304    6.9209 H   0  0  0  0  0  0  0  0  0  1  0  0
    1.0259    2.0255    7.5985 O   0  0  0  0  0  0  0  0  0  2  0  0
    0.1491    1.4873    6.7137 C   0  0  0  0  0  0  0  0  0  3  0  0
    0.4988    1.1676    5.4056 C   0  0  0  0  0  0  0  0  0  4  0  0
    1.5045    1.3469    5.0589 H   0  0  0  0  0  0  0  0  0 55  0  0
   -0.4210    0.6385    4.5013 C   0  0  0  0  0  0  0  0  0  5  0  0
    0.0227    0.3393    3.1601 C   0  0  0  0  0  0  0  0  0 20  0  0
   -0.6913   -0.1714    2.1524 C   0  0  0  0  0  0  0  0  0 21  0  0
   -0.0712   -0.4080    0.8523 C   0  0  0  0  0  0  0  0  0 22  0  0
    1.0974   -0.1842    0.5976 O   0  0  0  0  0  0  0  0  0 23  0  0
   -0.9090   -0.9235   -0.0969 N   0  0  0  0  0  0  0  0  0 24  0  0
   -0.4996   -1.2087   -1.3488 C   0  0  0  0  0  0  0  0  0 25  0  0
   -1.2788   -1.6501   -2.2684 N   0  0  0  0  0  0  0  0  0 26  0  0
   -0.6150   -1.8488   -3.4501 C   0  0  0  0  0  0  0  0  0 27  0  0
   -1.1916   -2.3119   -4.6280 C   0  0  0  0  0  0  0  0  0 28  0  0
   -2.2395   -2.5469   -4.6485 H   0  0  0  0  0  0  0  0  0 51  0  0
   -0.3798   -2.4760   -5.7300 C   0  0  0  0  0  0  0  0  0 29  0  0
   -0.7790   -2.8353   -6.6628 H   0  0  0  0  0  0  0  0  0 50  0  0
    0.9743   -2.1813   -5.6691 C   0  0  0  0  0  0  0  0  0 30  0  0
    1.9953   -2.4097   -7.1278 S   0  0  2  0  0  6  0  0  0 35  0  0
    1.2025   -3.0561   -8.1303 O   0  0  0  0  0  0  0  0  0 36  0  0
    3.2563   -2.9620   -6.7361 O   0  0  0  0  0  0  0  0  0 37  0  0
    2.3214   -0.8816   -7.6506 N   0  0  0  0  0  0  0  0  0 38  0  0
    3.0423   -0.3964   -7.1377 H   0  0  0  0  0  0  0  0  0 39  0  0
    1.2688   -0.0572   -8.1959 C   0  0  2  0  0  0  0  0  0 40  0  0
    1.7696    0.6134   -9.4754 C   0  0  0  0  0  0  0  0  0 41  0  0
    0.9658    1.1545   -9.9664 H   0  0  0  0  0  0  0  0  0 42  0  0
    2.1393   -0.1463  -10.1591 H   0  0  0  0  0  0  0  0  0 43  0  0
    2.5828    1.2990   -9.2602 H   0  0  0  0  0  0  0  0  0 44  0  0
    0.7535    0.9725   -7.1966 C   0  0  0  0  0  0  0  0  0 45  0  0
    1.5496    1.6755   -6.9478 H   0  0  0  0  0  0  0  0  0 46  0  0
    0.4174    0.4858   -6.2862 H   0  0  0  0  0  0  0  0  0 47  0  0
   -0.0814    1.5251   -7.6153 H   0  0  0  0  0  0  0  0  0 48  0  0
    0.4701   -0.7559   -8.4570 H   0  0  0  0  0  0  0  0  0 49  0  0
    1.5677   -1.7175   -4.5160 C   0  0  0  0  0  0  0  0  0 31  0  0
    2.6261   -1.5228   -4.4884 H   0  0  0  0  0  0  0  0  0 34  0  0
    0.7613   -1.5439   -3.4077 C   0  0  0  0  0  0  0  0  0 32  0  0
    1.1849   -0.9532   -1.8266 S   0  0  0  0  0  0  0  0  0 33  0  0
   -1.8800   -1.1195    0.1124 H   0  0  0  0  0  0  0  0  0 52  0  0
   -1.7346   -0.4340    2.2412 H   0  0  0  0  0  0  0  0  0 53  0  0
    1.0611    0.5540    2.9525 H   0  0  0  0  0  0  0  0  0 54  0  0
   -1.7272    0.4065    4.9211 C   0  0  0  0  0  0  0  0  0  6  0  0
   -2.4444   -0.0078    4.2353 H   0  0  0  0  0  0  0  0  0 19  0  0
   -2.0961    0.7187    6.2186 C   0  0  0  0  0  0  0  0  0  7  0  0
   -3.3519    0.5181    6.7314 O   0  0  0  0  0  0  0  0  0 14  0  0
   -4.3472   -0.0083    5.8902 C   0  0  0  0  0  0  0  0  0 15  0  0
   -5.2441   -0.0627    6.5089 H   0  0  0  0  0  0  0  0  0 16  0  0
   -4.5260    0.6330    5.0209 H   0  0  0  0  0  0  0  0  0 17  0  0
   -4.0854   -1.0123    5.5403 H   0  0  0  0  0  0  0  0  0 18  0  0
   -1.1808    1.2547    7.1348 C   0  0  0  0  0  0  0  0  0  8  0  0
   -1.7020    1.5078    8.3641 O   0  0  0  0  0  0  0  0  0  9  0  0
   -0.9328    1.9717    9.4289 C   0  0  0  0  0  0  0  0  0 10  0  0
   -0.1175    1.2784    9.6643 H   0  0  0  0  0  0  0  0  0 11  0  0
   -1.6252    2.0154   10.2669 H   0  0  0  0  0  0  0  0  0 12  0  0
   -0.5240    2.9669    9.2292 H   0  0  0  0  0  0  0  0  0 13  0  0
    2.4046    2.9737    6.3804 H   0  0  0  0  0  0  0  0  0 56  0  0
    2.8581    2.6751    8.0736 H   0  0  0  0  0  0  0  0  0 57  0  0
  1  2  1  0
  1  3  1  0
  3  4  1  0
  4  5  4  0
  5  6  1  0
  5  7  4  0
  7  8  1  0
  8  9  2  0
  9 10  1  0
 10 11  2  0
 10 12  1  0
 12 13  1  0
 13 14  4  0
 14 15  4  0
 15 16  4  0
 16 17  1  0
 16 18  4  0
 18 19  1  0
 18 20  4  0
 20 21  1  0
 21 22  2  0
 21 23  2  0
 21 24  1  6
 24 25  1  0
 24 26  1  0
 26 27  1  0
 27 28  1  0
 27 29  1  0
 27 30  1  0
 26 31  1  0
 31 32  1  0
 31 33  1  0
 31 34  1  0
 26 35  1  6
 20 36  4  0
 36 37  1  0
 36 38  4  0
 38 39  4  0
 12 40  1  0
  9 41  1  0
  8 42  1  0
  7 43  4  0
 43 44  1  0
 43 45  4  0
 45 46  1  0
 46 47  1  0
 47 48  1  0
 47 49  1  0
 47 50  1  0
 45 51  4  0
 51 52  1  0
 52 53  1  0
 53 54  1  0
 53 55  1  0
 53 56  1  0
  1 57  1  0
  1 58  1  0
 51  4  4  0
 39 13  4  0
 38 15  4  0
M  END
>  <sample_id>  (120)
train::COc1cc(_C=C_C(=O)Nc2nc3ccc(S(=O)(=O)NC(C)C)cc3s2)cc(OC)c1OC__gen0002

>  <partition>  (120)
BAT_EXTERNAL_CONFIRM

>  <method>  (120)
BA_seed193

>  <candidate>  (120)
primary

$$$$
train::CCN1CCN(Cc2c(O)ccc3c(=O)c(-c4ccc(OC)c(OC)c4)c(C(F)(F)F)oc23)CC1__gen0000
     RDKit          3D

 62 65  0  0  0  0  0  0  0  0999 V2000
    4.7899    1.9485    2.6381 C   0  0  0  0  0  0  0  0  0  0  0  0
    4.4854    1.2005    3.3501 H   0  0  0  0  0  0  0  0  0  1  0  0
    5.2458    2.7731    3.1859 H   0  0  0  0  0  0  0  0  0  2  0  0
    3.9309    2.3288    2.0973 H   0  0  0  0  0  0  0  0  0  3  0  0
    5.8247    1.3674    1.6621 C   0  0  0  0  0  0  0  0  0  4  0  0
    5.3975    0.2469    0.8674 N   0  0  0  0  0  0  0  0  0  5  0  0
    5.1281   -0.9619    1.5956 C   0  0  0  0  0  0  0  0  0  6  0  0
    5.9704   -1.1732    2.2638 H   0  0  0  0  0  0  0  0  0 58  0  0
    4.2189   -0.8833    2.2234 H   0  0  0  0  0  0  0  0  0 59  0  0
    4.9712   -2.1152    0.6045 C   0  0  0  0  0  0  0  0  0  7  0  0
    4.7938   -3.0694    1.1409 H   0  0  0  0  0  0  0  0  0 56  0  0
    5.9079   -2.2303    0.0439 H   0  0  0  0  0  0  0  0  0 57  0  0
    3.9115   -1.9138   -0.3562 N   0  0  0  0  0  0  0  0  0  8  0  0
    2.5819   -2.0690    0.1797 C   0  0  0  0  0  0  0  0  0 15  0  0
    1.5289   -2.1563   -0.9018 C   0  0  0  0  0  0  0  0  0 16  0  0
    0.3006   -1.5431   -0.7757 C   0  0  0  0  0  0  0  0  0 17  0  0
   -0.6912   -1.6677   -1.7514 C   0  0  0  0  0  0  0  0  0 18  0  0
   -0.4270   -2.4485   -2.8875 C   0  0  0  0  0  0  0  0  0 19  0  0
   -1.2165   -2.5277   -3.6244 H   0  0  0  0  0  0  0  0  0 25  0  0
    0.7748   -3.0836   -3.0316 C   0  0  0  0  0  0  0  0  0 20  0  0
    0.9988   -3.6734   -3.9047 H   0  0  0  0  0  0  0  0  0 24  0  0
    1.7763   -2.9284   -2.0646 C   0  0  0  0  0  0  0  0  0 21  0  0
    2.9506   -3.5178   -2.2736 O   0  0  0  0  0  0  0  0  0 22  0  0
    3.6094   -3.2038   -1.5975 H   0  0  0  0  0  0  0  0  0 23  0  0
   -1.9943   -0.9962   -1.5955 C   0  0  0  0  0  0  0  0  0 26  0  0
   -2.8669   -1.0664   -2.4374 O   0  0  0  0  0  0  0  0  0 27  0  0
   -2.1235   -0.2334   -0.3455 C   0  0  0  0  0  0  0  0  0 28  0  0
   -3.4244    0.4240   -0.0854 C   0  0  0  0  0  0  0  0  0 35  0  0
   -4.0521    0.3212    1.1618 C   0  0  0  0  0  0  0  0  0 36  0  0
   -3.5806   -0.2306    1.9670 H   0  0  0  0  0  0  0  0  0 53  0  0
   -5.2736    0.9100    1.3825 C   0  0  0  0  0  0  0  0  0 37  0  0
   -5.7347    0.8178    2.3524 H   0  0  0  0  0  0  0  0  0 52  0  0
   -5.9193    1.6151    0.3680 C   0  0  0  0  0  0  0  0  0 38  0  0
   -7.1285    2.2114    0.4813 O   0  0  0  0  0  0  0  0  0 47  0  0
   -7.7865    2.1700    1.7285 C   0  0  0  0  0  0  0  0  0 48  0  0
   -8.7174    2.7121    1.5801 H   0  0  0  0  0  0  0  0  0 49  0  0
   -7.1943    2.6384    2.5084 H   0  0  0  0  0  0  0  0  0 50  0  0
   -8.0034    1.1397    2.0284 H   0  0  0  0  0  0  0  0  0 51  0  0
   -5.2981    1.7094   -0.8996 C   0  0  0  0  0  0  0  0  0 39  0  0
   -6.0076    2.4109   -1.8195 O   0  0  0  0  0  0  0  0  0 42  0  0
   -5.4681    2.5203   -3.1255 C   0  0  0  0  0  0  0  0  0 43  0  0
   -6.1959    3.0722   -3.7024 H   0  0  0  0  0  0  0  0  0 44  0  0
   -5.2820    1.5491   -3.5792 H   0  0  0  0  0  0  0  0  0 45  0  0
   -4.5301    3.0875   -3.1110 H   0  0  0  0  0  0  0  0  0 46  0  0
   -4.0822    1.1159   -1.1048 C   0  0  0  0  0  0  0  0  0 40  0  0
   -3.5749    1.1720   -2.0526 H   0  0  0  0  0  0  0  0  0 41  0  0
   -1.0775   -0.1657    0.5157 C   0  0  0  0  0  0  0  0  0 29  0  0
   -1.0028    0.6431    1.8006 C   0  0  1  0  0  0  0  0  0 31  0  0
    0.2131    1.1647    2.0019 F   0  0  0  0  0  0  0  0  0 32  0  0
   -1.8460    1.6745    1.8280 F   0  0  0  0  0  0  0  0  0 33  0  0
   -1.2501   -0.1239    2.8713 F   0  0  0  0  0  0  0  0  0 34  0  0
    0.1034   -0.7839    0.3258 O   0  0  0  0  0  0  0  0  0 30  0  0
    2.3024   -1.2727    0.8775 H   0  0  0  0  0  0  0  0  0 54  0  0
    2.5505   -3.0073    0.7580 H   0  0  0  0  0  0  0  0  0 55  0  0
    4.1263   -0.6340   -1.0285 C   0  0  0  0  0  0  0  0  0  9  0  0
    5.0442   -0.7226   -1.6234 H   0  0  0  0  0  0  0  0  0 13  0  0
    3.2823   -0.4297   -1.7104 H   0  0  0  0  0  0  0  0  0 14  0  0
    4.2962    0.5218   -0.0484 C   0  0  0  0  0  0  0  0  0 10  0  0
    4.5372    1.4443   -0.6068 H   0  0  0  0  0  0  0  0  0 11  0  0
    3.3451    0.7070    0.4754 H   0  0  0  0  0  0  0  0  0 12  0  0
    6.1383    2.1605    0.9663 H   0  0  0  0  0  0  0  0  0 60  0  0
    6.7129    1.0550    2.2135 H   0  0  0  0  0  0  0  0  0 61  0  0
  1  2  1  0
  1  3  1  0
  1  4  1  0
  1  5  1  0
  5  6  1  0
  6  7  1  0
  7  8  1  0
  7  9  1  0
  7 10  1  0
 10 11  1  0
 10 12  1  0
 10 13  1  0
 13 14  1  0
 14 15  1  0
 15 16  4  0
 16 17  4  0
 17 18  4  0
 18 19  1  0
 18 20  4  0
 20 21  1  0
 20 22  4  0
 22 23  1  0
 23 24  1  0
 17 25  4  0
 25 26  2  0
 25 27  4  0
 27 28  1  0
 28 29  4  0
 29 30  1  0
 29 31  4  0
 31 32  1  0
 31 33  4  0
 33 34  1  0
 34 35  1  0
 35 36  1  0
 35 37  1  0
 35 38  1  0
 33 39  4  0
 39 40  1  0
 40 41  1  0
 41 42  1  0
 41 43  1  0
 41 44  1  0
 39 45  4  0
 45 46  1  0
 27 47  4  0
 47 48  1  0
 48 49  1  1
 48 50  1  0
 48 51  1  0
 47 52  4  0
 14 53  1  0
 14 54  1  0
 13 55  1  0
 55 56  1  0
 55 57  1  0
 55 58  1  0
 58 59  1  0
 58 60  1  0
  5 61  1  0
  5 62  1  0
 58  6  1  0
 22 15  4  0
 45 28  4  0
 52 16  4  0
M  END
>  <sample_id>  (121)
train::CCN1CCN(Cc2c(O)ccc3c(=O)c(-c4ccc(OC)c(OC)c4)c(C(F)(F)F)oc23)CC1__gen0000

>  <partition>  (121)
BAT_EXTERNAL_CONFIRM

>  <method>  (121)
BA_seed193

>  <candidate>  (121)
primary

$$$$
train::CCN1CCN(Cc2c(O)ccc3c(=O)c(-c4ccc(OC)c(OC)c4)c(C(F)(F)F)oc23)CC1__gen0001
     RDKit          3D

 62 65  0  0  0  0  0  0  0  0999 V2000
    1.5762   -6.3719   -0.3172 C   0  0  0  0  0  0  0  0  0  0  0  0
    2.3182   -5.9591    0.3573 H   0  0  0  0  0  0  0  0  0  1  0  0
    2.0708   -6.6871   -1.2358 H   0  0  0  0  0  0  0  0  0  2  0  0
    1.1336   -7.2550    0.1604 H   0  0  0  0  0  0  0  0  0  3  0  0
    0.4780   -5.3658   -0.6305 C   0  0  0  0  0  0  0  0  0  4  0  0
    0.9478   -4.3131   -1.5247 N   0  0  0  0  0  0  0  0  0  5  0  0
   -0.1394   -3.5588   -2.0953 C   0  0  0  0  0  0  0  0  0  6  0  0
   -0.7119   -3.0141   -1.3195 H   0  0  0  0  0  0  0  0  0 58  0  0
   -0.8271   -4.2428   -2.6002 H   0  0  0  0  0  0  0  0  0 59  0  0
    0.3971   -2.5589   -3.1229 C   0  0  0  0  0  0  0  0  0  7  0  0
   -0.4391   -1.9878   -3.5443 H   0  0  0  0  0  0  0  0  0 56  0  0
    0.8968   -3.1245   -3.9259 H   0  0  0  0  0  0  0  0  0 57  0  0
    1.3062   -1.6445   -2.4577 N   0  0  0  0  0  0  0  0  0  8  0  0
    1.7771   -0.5690   -3.3249 C   0  0  0  0  0  0  0  0  0 15  0  0
    2.3016    0.5863   -2.4958 C   0  0  0  0  0  0  0  0  0 16  0  0
    1.5070    1.0745   -1.4499 C   0  0  0  0  0  0  0  0  0 17  0  0
    1.9013    2.1775   -0.6885 C   0  0  0  0  0  0  0  0  0 18  0  0
    3.1162    2.8050   -0.9817 C   0  0  0  0  0  0  0  0  0 19  0  0
    3.3896    3.6629   -0.3869 H   0  0  0  0  0  0  0  0  0 25  0  0
    3.9087    2.3354   -1.9943 C   0  0  0  0  0  0  0  0  0 20  0  0
    4.8531    2.8029   -2.2254 H   0  0  0  0  0  0  0  0  0 24  0  0
    3.5193    1.2356   -2.7591 C   0  0  0  0  0  0  0  0  0 21  0  0
    4.3759    0.8379   -3.7055 O   0  0  0  0  0  0  0  0  0 22  0  0
    4.1019    0.0073   -4.1156 H   0  0  0  0  0  0  0  0  0 23  0  0
    1.0375    2.6759    0.4004 C   0  0  0  0  0  0  0  0  0 26  0  0
    1.3549    3.6445    1.0701 O   0  0  0  0  0  0  0  0  0 27  0  0
   -0.1911    1.9091    0.6252 C   0  0  0  0  0  0  0  0  0 28  0  0
   -1.0614    2.3602    1.7199 C   0  0  0  0  0  0  0  0  0 35  0  0
   -0.5123    2.6656    2.9648 C   0  0  0  0  0  0  0  0  0 36  0  0
    0.5480    2.5219    3.1178 H   0  0  0  0  0  0  0  0  0 53  0  0
   -1.2993    3.1246    4.0037 C   0  0  0  0  0  0  0  0  0 37  0  0
   -0.8423    3.3518    4.9526 H   0  0  0  0  0  0  0  0  0 52  0  0
   -2.6675    3.2822    3.8382 C   0  0  0  0  0  0  0  0  0 38  0  0
   -3.5236    3.7263    4.7925 O   0  0  0  0  0  0  0  0  0 47  0  0
   -2.9916    4.1049    6.0447 C   0  0  0  0  0  0  0  0  0 48  0  0
   -2.5236    3.2551    6.5565 H   0  0  0  0  0  0  0  0  0 49  0  0
   -2.2820    4.9253    5.9430 H   0  0  0  0  0  0  0  0  0 50  0  0
   -3.8411    4.4386    6.6422 H   0  0  0  0  0  0  0  0  0 51  0  0
   -3.2494    2.9773    2.5798 C   0  0  0  0  0  0  0  0  0 39  0  0
   -4.5872    3.1899    2.5004 O   0  0  0  0  0  0  0  0  0 42  0  0
   -5.2264    2.8581    1.2896 C   0  0  0  0  0  0  0  0  0 43  0  0
   -5.0817    1.8189    1.0399 H   0  0  0  0  0  0  0  0  0 44  0  0
   -4.8769    3.5007    0.4751 H   0  0  0  0  0  0  0  0  0 45  0  0
   -6.2867    3.0579    1.4603 H   0  0  0  0  0  0  0  0  0 46  0  0
   -2.4392    2.5194    1.5539 C   0  0  0  0  0  0  0  0  0 40  0  0
   -2.8648    2.3718    0.5701 H   0  0  0  0  0  0  0  0  0 41  0  0
   -0.4437    0.8303   -0.1757 C   0  0  0  0  0  0  0  0  0 29  0  0
   -1.6516   -0.0753   -0.1109 C   0  0  1  0  0  0  0  0  0 31  0  0
   -2.7779    0.5854    0.1832 F   0  0  0  0  0  0  0  0  0 32  0  0
   -1.8831   -0.7139   -1.2643 F   0  0  0  0  0  0  0  0  0 33  0  0
   -1.5007   -1.0458    0.8111 F   0  0  0  0  0  0  0  0  0 34  0  0
    0.3569    0.4194   -1.1938 O   0  0  0  0  0  0  0  0  0 30  0  0
    0.9212   -0.2224   -3.9077 H   0  0  0  0  0  0  0  0  0 54  0  0
    2.5291   -0.9325   -4.0311 H   0  0  0  0  0  0  0  0  0 55  0  0
    2.4028   -2.3795   -1.8688 C   0  0  0  0  0  0  0  0  0  9  0  0
    3.0661   -1.6788   -1.3541 H   0  0  0  0  0  0  0  0  0 13  0  0
    2.9819   -2.9227   -2.6283 H   0  0  0  0  0  0  0  0  0 14  0  0
    1.8652   -3.3914   -0.8619 C   0  0  0  0  0  0  0  0  0 10  0  0
    2.6963   -3.9548   -0.4453 H   0  0  0  0  0  0  0  0  0 11  0  0
    1.3534   -2.8451   -0.0559 H   0  0  0  0  0  0  0  0  0 12  0  0
    0.0599   -4.9409    0.2993 H   0  0  0  0  0  0  0  0  0 60  0  0
   -0.3272   -5.8847   -1.1525 H   0  0  0  0  0  0  0  0  0 61  0  0
  1  2  1  0
  1  3  1  0
  1  4  1  0
  1  5  1  0
  5  6  1  0
  6  7  1  0
  7  8  1  0
  7  9  1  0
  7 10  1  0
 10 11  1  0
 10 12  1  0
 10 13  1  0
 13 14  1  0
 14 15  1  0
 15 16  4  0
 16 17  4  0
 17 18  4  0
 18 19  1  0
 18 20  4  0
 20 21  1  0
 20 22  4  0
 22 23  1  0
 23 24  1  0
 17 25  4  0
 25 26  2  0
 25 27  4  0
 27 28  1  0
 28 29  4  0
 29 30  1  0
 29 31  4  0
 31 32  1  0
 31 33  4  0
 33 34  1  0
 34 35  1  0
 35 36  1  0
 35 37  1  0
 35 38  1  0
 33 39  4  0
 39 40  1  0
 40 41  1  0
 41 42  1  0
 41 43  1  0
 41 44  1  0
 39 45  4  0
 45 46  1  0
 27 47  4  0
 47 48  1  0
 48 49  1  1
 48 50  1  0
 48 51  1  0
 47 52  4  0
 14 53  1  0
 14 54  1  0
 13 55  1  0
 55 56  1  0
 55 57  1  0
 55 58  1  0
 58 59  1  0
 58 60  1  0
  5 61  1  0
  5 62  1  0
 58  6  1  0
 22 15  4  0
 45 28  4  0
 52 16  4  0
M  END
>  <sample_id>  (122)
train::CCN1CCN(Cc2c(O)ccc3c(=O)c(-c4ccc(OC)c(OC)c4)c(C(F)(F)F)oc23)CC1__gen0001

>  <partition>  (122)
BAT_EXTERNAL_CONFIRM

>  <method>  (122)
BA_seed193

>  <candidate>  (122)
primary

$$$$
train::CCN1CCN(Cc2c(O)ccc3c(=O)c(-c4ccc(OC)c(OC)c4)c(C(F)(F)F)oc23)CC1__gen0002
     RDKit          3D

 62 65  0  0  0  0  0  0  0  0999 V2000
   -2.7306   -0.9766   -6.5468 C   0  0  0  0  0  0  0  0  0  0  0  0
   -1.8578   -0.3480   -6.3928 H   0  0  0  0  0  0  0  0  0  1  0  0
   -3.3121   -0.5961   -7.3806 H   0  0  0  0  0  0  0  0  0  2  0  0
   -2.3901   -1.9736   -6.8007 H   0  0  0  0  0  0  0  0  0  3  0  0
   -3.5879   -1.0010   -5.2853 C   0  0  0  0  0  0  0  0  0  4  0  0
   -2.8090   -1.4370   -4.1468 N   0  0  0  0  0  0  0  0  0  5  0  0
   -2.7817   -2.8737   -3.9730 C   0  0  0  0  0  0  0  0  0  6  0  0
   -3.7977   -3.2447   -3.7126 H   0  0  0  0  0  0  0  0  0 58  0  0
   -2.4904   -3.3453   -4.9109 H   0  0  0  0  0  0  0  0  0 59  0  0
   -1.8168   -3.2791   -2.8782 C   0  0  0  0  0  0  0  0  0  7  0  0
   -1.8495   -4.3710   -2.7842 H   0  0  0  0  0  0  0  0  0 56  0  0
   -0.7977   -2.9626   -3.1793 H   0  0  0  0  0  0  0  0  0 57  0  0
   -2.2191   -2.6715   -1.6218 N   0  0  0  0  0  0  0  0  0  8  0  0
   -1.5225   -3.1134   -0.4396 C   0  0  0  0  0  0  0  0  0 15  0  0
   -0.0279   -2.7426   -0.3842 C   0  0  0  0  0  0  0  0  0 16  0  0
    0.3688   -1.5611    0.2432 C   0  0  0  0  0  0  0  0  0 17  0  0
    1.7160   -1.1732    0.2810 C   0  0  0  0  0  0  0  0  0 18  0  0
    2.6682   -2.0007   -0.3152 C   0  0  0  0  0  0  0  0  0 19  0  0
    3.6978   -1.6789   -0.2775 H   0  0  0  0  0  0  0  0  0 25  0  0
    2.2892   -3.1622   -0.9233 C   0  0  0  0  0  0  0  0  0 20  0  0
    3.0142   -3.8248   -1.3948 H   0  0  0  0  0  0  0  0  0 24  0  0
    0.9447   -3.5476   -0.9550 C   0  0  0  0  0  0  0  0  0 21  0  0
    0.6541   -4.7343   -1.5268 O   0  0  0  0  0  0  0  0  0 22  0  0
   -0.3097   -4.8694   -1.5342 H   0  0  0  0  0  0  0  0  0 23  0  0
    2.1446    0.0494    0.9866 C   0  0  0  0  0  0  0  0  0 26  0  0
    3.3096    0.3918    1.0355 O   0  0  0  0  0  0  0  0  0 27  0  0
    1.0420    0.8088    1.6258 C   0  0  0  0  0  0  0  0  0 28  0  0
    1.4121    2.0007    2.4341 C   0  0  0  0  0  0  0  0  0 35  0  0
    0.6757    3.1767    2.4580 C   0  0  0  0  0  0  0  0  0 36  0  0
   -0.2354    3.2802    1.8757 H   0  0  0  0  0  0  0  0  0 53  0  0
    1.1039    4.2528    3.2105 C   0  0  0  0  0  0  0  0  0 37  0  0
    0.4984    5.1460    3.2327 H   0  0  0  0  0  0  0  0  0 52  0  0
    2.2497    4.1797    3.9780 C   0  0  0  0  0  0  0  0  0 38  0  0
    2.7499    5.1659    4.7745 O   0  0  0  0  0  0  0  0  0 47  0  0
    2.0235    6.3598    4.8809 C   0  0  0  0  0  0  0  0  0 48  0  0
    2.6061    6.9841    5.5886 H   0  0  0  0  0  0  0  0  0 49  0  0
    1.9412    6.8883    3.9408 H   0  0  0  0  0  0  0  0  0 50  0  0
    1.0301    6.1963    5.2988 H   0  0  0  0  0  0  0  0  0 51  0  0
    2.9866    2.9852    3.9744 C   0  0  0  0  0  0  0  0  0 39  0  0
    4.1088    2.9791    4.7414 O   0  0  0  0  0  0  0  0  0 42  0  0
    4.9182    1.8155    4.7718 C   0  0  0  0  0  0  0  0  0 43  0  0
    5.2931    1.5626    3.7872 H   0  0  0  0  0  0  0  0  0 44  0  0
    4.3637    0.9709    5.1539 H   0  0  0  0  0  0  0  0  0 45  0  0
    5.7457    2.0428    5.4434 H   0  0  0  0  0  0  0  0  0 46  0  0
    2.5754    1.9303    3.2179 C   0  0  0  0  0  0  0  0  0 40  0  0
    3.1194    1.0069    3.2050 H   0  0  0  0  0  0  0  0  0 41  0  0
   -0.2232    0.3384    1.4834 C   0  0  0  0  0  0  0  0  0 29  0  0
   -1.4789    1.0330    1.9974 C   0  0  1  0  0  0  0  0  0 31  0  0
   -1.4063    2.3632    1.8807 F   0  0  0  0  0  0  0  0  0 32  0  0
   -2.5762    0.6722    1.3412 F   0  0  0  0  0  0  0  0  0 33  0  0
   -1.6829    0.7426    3.3011 F   0  0  0  0  0  0  0  0  0 34  0  0
   -0.5850   -0.7813    0.8305 O   0  0  0  0  0  0  0  0  0 30  0  0
   -1.6500   -4.1952   -0.3388 H   0  0  0  0  0  0  0  0  0 54  0  0
   -2.0114   -2.6456    0.4115 H   0  0  0  0  0  0  0  0  0 55  0  0
   -2.2315   -1.2204   -1.7794 C   0  0  0  0  0  0  0  0  0  9  0  0
   -2.5751   -0.7781   -0.8468 H   0  0  0  0  0  0  0  0  0 13  0  0
   -1.2433   -0.8183   -2.0376 H   0  0  0  0  0  0  0  0  0 14  0  0
   -3.2141   -0.8449   -2.8894 C   0  0  0  0  0  0  0  0  0 10  0  0
   -4.2249   -1.1698   -2.6036 H   0  0  0  0  0  0  0  0  0 11  0  0
   -3.2135    0.2419   -3.0029 H   0  0  0  0  0  0  0  0  0 12  0  0
   -3.9340    0.0136   -5.0867 H   0  0  0  0  0  0  0  0  0 60  0  0
   -4.4643   -1.6367   -5.4364 H   0  0  0  0  0  0  0  0  0 61  0  0
  1  2  1  0
  1  3  1  0
  1  4  1  0
  1  5  1  0
  5  6  1  0
  6  7  1  0
  7  8  1  0
  7  9  1  0
  7 10  1  0
 10 11  1  0
 10 12  1  0
 10 13  1  0
 13 14  1  0
 14 15  1  0
 15 16  4  0
 16 17  4  0
 17 18  4  0
 18 19  1  0
 18 20  4  0
 20 21  1  0
 20 22  4  0
 22 23  1  0
 23 24  1  0
 17 25  4  0
 25 26  2  0
 25 27  4  0
 27 28  1  0
 28 29  4  0
 29 30  1  0
 29 31  4  0
 31 32  1  0
 31 33  4  0
 33 34  1  0
 34 35  1  0
 35 36  1  0
 35 37  1  0
 35 38  1  0
 33 39  4  0
 39 40  1  0
 40 41  1  0
 41 42  1  0
 41 43  1  0
 41 44  1  0
 39 45  4  0
 45 46  1  0
 27 47  4  0
 47 48  1  0
 48 49  1  1
 48 50  1  0
 48 51  1  0
 47 52  4  0
 14 53  1  0
 14 54  1  0
 13 55  1  0
 55 56  1  0
 55 57  1  0
 55 58  1  0
 58 59  1  0
 58 60  1  0
  5 61  1  0
  5 62  1  0
 58  6  1  0
 22 15  4  0
 45 28  4  0
 52 16  4  0
M  END
>  <sample_id>  (123)
train::CCN1CCN(Cc2c(O)ccc3c(=O)c(-c4ccc(OC)c(OC)c4)c(C(F)(F)F)oc23)CC1__gen0002

>  <partition>  (123)
BAT_EXTERNAL_CONFIRM

>  <method>  (123)
BA_seed193

>  <candidate>  (123)
primary

$$$$
train::Cc1ccccc1-n1c(C)nnc1SCC(=O)N1CCc2ccccc2C1__gen0000
     RDKit          3D

 49 52  0  0  0  0  0  0  0  0999 V2000
   -1.1972    2.5945   -2.8182 C   0  0  0  0  0  0  0  0  0  0  0  0
   -2.5720    2.9102   -2.3465 C   0  0  0  0  0  0  0  0  0  1  0  0
   -3.1097    4.1866   -2.4865 C   0  0  0  0  0  0  0  0  0  2  0  0
   -2.4932    4.9635   -2.9091 H   0  0  0  0  0  0  0  0  0 45  0  0
   -4.3950    4.4746   -2.0780 C   0  0  0  0  0  0  0  0  0  3  0  0
   -4.7902    5.4776   -2.1962 H   0  0  0  0  0  0  0  0  0 44  0  0
   -5.1862    3.4836   -1.5243 C   0  0  0  0  0  0  0  0  0  4  0  0
   -6.1984    3.7054   -1.2147 H   0  0  0  0  0  0  0  0  0 43  0  0
   -4.6894    2.2128   -1.3600 C   0  0  0  0  0  0  0  0  0  5  0  0
   -5.2864    1.4251   -0.9267 H   0  0  0  0  0  0  0  0  0 42  0  0
   -3.3914    1.9278   -1.7743 C   0  0  0  0  0  0  0  0  0  6  0  0
   -2.9062    0.6111   -1.6010 N   0  0  0  0  0  0  0  0  0  7  0  0
   -2.0120    0.1475   -0.6921 C   0  0  0  0  0  0  0  0  0  8  0  0
   -1.1710    1.1819    0.4261 S   0  0  0  0  0  0  0  0  0 16  0  0
   -0.1707   -0.0994    1.2365 C   0  0  0  0  0  0  0  0  0 17  0  0
   -0.1199   -0.9299    0.5359 H   0  0  0  0  0  0  0  0  0 18  0  0
    1.1741    0.5075    1.5663 C   0  0  0  0  0  0  0  0  0 19  0  0
    1.4100    1.6764    1.3401 O   0  0  0  0  0  0  0  0  0 20  0  0
    2.0814   -0.2976    2.1670 N   0  0  0  0  0  0  0  0  0 21  0  0
    1.8961   -1.7060    2.4464 C   0  0  0  0  0  0  0  0  0 22  0  0
    1.1164   -2.1102    1.8007 H   0  0  0  0  0  0  0  0  0 39  0  0
    1.5627   -1.8259    3.4907 H   0  0  0  0  0  0  0  0  0 40  0  0
    3.1511   -2.5254    2.2682 C   0  0  0  0  0  0  0  0  0 23  0  0
    4.3862   -1.9318    2.0030 C   0  0  0  0  0  0  0  0  0 24  0  0
    5.5115   -2.7428    1.8781 C   0  0  0  0  0  0  0  0  0 25  0  0
    6.4698   -2.2926    1.6646 H   0  0  0  0  0  0  0  0  0 32  0  0
    5.4168   -4.1188    2.0147 C   0  0  0  0  0  0  0  0  0 26  0  0
    6.3052   -4.7257    1.9395 H   0  0  0  0  0  0  0  0  0 31  0  0
    4.1986   -4.6987    2.3011 C   0  0  0  0  0  0  0  0  0 27  0  0
    4.1158   -5.7663    2.4116 H   0  0  0  0  0  0  0  0  0 30  0  0
    3.0690   -3.9099    2.4028 C   0  0  0  0  0  0  0  0  0 28  0  0
    2.1092   -4.3560    2.6263 H   0  0  0  0  0  0  0  0  0 29  0  0
    4.4798   -0.4529    1.8051 C   0  0  0  0  0  0  0  0  0 33  0  0
    5.4454   -0.0896    2.1516 H   0  0  0  0  0  0  0  0  0 37  0  0
    4.3922   -0.2092    0.7452 H   0  0  0  0  0  0  0  0  0 38  0  0
    3.3555    0.2291    2.5881 C   0  0  0  0  0  0  0  0  0 34  0  0
    3.4869    0.0642    3.6571 H   0  0  0  0  0  0  0  0  0 35  0  0
    3.3368    1.3011    2.3960 H   0  0  0  0  0  0  0  0  0 36  0  0
   -0.6778   -0.4200    2.1424 H   0  0  0  0  0  0  0  0  0 41  0  0
   -1.8705   -1.1440   -0.7891 N   0  0  0  0  0  0  0  0  0  9  0  0
   -2.6810   -1.5640   -1.7741 N   0  0  0  0  0  0  0  0  0 10  0  0
   -3.2979   -0.5339   -2.2581 C   0  0  0  0  0  0  0  0  0 11  0  0
   -4.2515   -0.5377   -3.3961 C   0  0  0  0  0  0  0  0  0 12  0  0
   -5.2320   -0.1671   -3.0789 H   0  0  0  0  0  0  0  0  0 13  0  0
   -4.3513   -1.5639   -3.7616 H   0  0  0  0  0  0  0  0  0 14  0  0
   -3.8892    0.0988   -4.1914 H   0  0  0  0  0  0  0  0  0 15  0  0
   -0.7104    3.4980   -3.1825 H   0  0  0  0  0  0  0  0  0 46  0  0
   -1.2342    1.8689   -3.6281 H   0  0  0  0  0  0  0  0  0 47  0  0
   -0.5857    2.1732   -2.0180 H   0  0  0  0  0  0  0  0  0 48  0  0
  1  2  1  0
  2  3  4  0
  3  4  1  0
  3  5  4  0
  5  6  1  0
  5  7  4  0
  7  8  1  0
  7  9  4  0
  9 10  1  0
  9 11  4  0
 11 12  1  0
 12 13  4  0
 13 14  1  0
 14 15  1  0
 15 16  1  0
 15 17  1  0
 17 18  2  0
 17 19  1  0
 19 20  1  0
 20 21  1  0
 20 22  1  0
 20 23  1  0
 23 24  4  0
 24 25  4  0
 25 26  1  0
 25 27  4  0
 27 28  1  0
 27 29  4  0
 29 30  1  0
 29 31  4  0
 31 32  1  0
 24 33  1  0
 33 34  1  0
 33 35  1  0
 33 36  1  0
 36 37  1  0
 36 38  1  0
 15 39  1  0
 13 40  4  0
 40 41  4  0
 41 42  4  0
 42 43  1  0
 43 44  1  0
 43 45  1  0
 43 46  1  0
  1 47  1  0
  1 48  1  0
  1 49  1  0
 11  2  4  0
 42 12  4  0
 36 19  1  0
 31 23  4  0
M  END
>  <sample_id>  (124)
train::Cc1ccccc1-n1c(C)nnc1SCC(=O)N1CCc2ccccc2C1__gen0000

>  <partition>  (124)
BAT_EXTERNAL_CONFIRM

>  <method>  (124)
BA_seed193

>  <candidate>  (124)
primary

$$$$
train::Cc1ccccc1-n1c(C)nnc1SCC(=O)N1CCc2ccccc2C1__gen0001
     RDKit          3D

 49 52  0  0  0  0  0  0  0  0999 V2000
    4.1861    0.7458   -1.1006 C   0  0  0  0  0  0  0  0  0  0  0  0
    3.2659   -0.4400   -1.2088 C   0  0  0  0  0  0  0  0  0  1  0  0
    3.6994   -1.6301   -1.7679 C   0  0  0  0  0  0  0  0  0  2  0  0
    4.7167   -1.7014   -2.1299 H   0  0  0  0  0  0  0  0  0 45  0  0
    2.8539   -2.7232   -1.8914 C   0  0  0  0  0  0  0  0  0  3  0  0
    3.2185   -3.6309   -2.3450 H   0  0  0  0  0  0  0  0  0 44  0  0
    1.5451   -2.6393   -1.4549 C   0  0  0  0  0  0  0  0  0  4  0  0
    0.8786   -3.4745   -1.5566 H   0  0  0  0  0  0  0  0  0 43  0  0
    1.0855   -1.4663   -0.8840 C   0  0  0  0  0  0  0  0  0  5  0  0
    0.0776   -1.3947   -0.5205 H   0  0  0  0  0  0  0  0  0 42  0  0
    1.9479   -0.3845   -0.7351 C   0  0  0  0  0  0  0  0  0  6  0  0
    1.4657    0.7815   -0.1295 N   0  0  0  0  0  0  0  0  0  7  0  0
    0.5349    1.6422   -0.6769 C   0  0  0  0  0  0  0  0  0  8  0  0
   -0.0760    1.4305   -2.2777 S   0  0  0  0  0  0  0  0  0 16  0  0
   -1.6677    2.3508   -2.1739 C   0  0  0  0  0  0  0  0  0 17  0  0
   -1.5829    3.0922   -1.3866 H   0  0  0  0  0  0  0  0  0 18  0  0
   -2.7772    1.3221   -1.9922 C   0  0  0  0  0  0  0  0  0 19  0  0
   -3.2870    0.8090   -2.9776 O   0  0  0  0  0  0  0  0  0 20  0  0
   -3.1558    0.9719   -0.7532 N   0  0  0  0  0  0  0  0  0 21  0  0
   -2.6697    1.4538    0.5269 C   0  0  0  0  0  0  0  0  0 22  0  0
   -3.5117    1.8535    1.0829 H   0  0  0  0  0  0  0  0  0 39  0  0
   -1.9350    2.2489    0.3900 H   0  0  0  0  0  0  0  0  0 40  0  0
   -2.0316    0.3249    1.3119 C   0  0  0  0  0  0  0  0  0 23  0  0
   -2.2274   -1.0122    0.9620 C   0  0  0  0  0  0  0  0  0 24  0  0
   -1.6066   -2.0124    1.7018 C   0  0  0  0  0  0  0  0  0 25  0  0
   -1.7562   -3.0410    1.4184 H   0  0  0  0  0  0  0  0  0 32  0  0
   -0.8167   -1.6905    2.7857 C   0  0  0  0  0  0  0  0  0 26  0  0
   -0.3447   -2.4778    3.3515 H   0  0  0  0  0  0  0  0  0 31  0  0
   -0.6318   -0.3705    3.1456 C   0  0  0  0  0  0  0  0  0 27  0  0
   -0.0444   -0.1164    4.0108 H   0  0  0  0  0  0  0  0  0 30  0  0
   -1.2500    0.6301    2.4221 C   0  0  0  0  0  0  0  0  0 28  0  0
   -1.0846    1.6692    2.6773 H   0  0  0  0  0  0  0  0  0 29  0  0
   -3.1171   -1.3703   -0.1975 C   0  0  0  0  0  0  0  0  0 33  0  0
   -2.4963   -1.6462   -1.0538 H   0  0  0  0  0  0  0  0  0 37  0  0
   -3.7237   -2.2484    0.0537 H   0  0  0  0  0  0  0  0  0 38  0  0
   -4.0047   -0.1870   -0.5956 C   0  0  0  0  0  0  0  0  0 34  0  0
   -4.7494    0.0135    0.1799 H   0  0  0  0  0  0  0  0  0 35  0  0
   -4.5101   -0.3774   -1.5379 H   0  0  0  0  0  0  0  0  0 36  0  0
   -1.7863    2.8104   -3.1482 H   0  0  0  0  0  0  0  0  0 41  0  0
    0.2607    2.6225    0.1628 N   0  0  0  0  0  0  0  0  0  9  0  0
    1.0210    2.3884    1.2476 N   0  0  0  0  0  0  0  0  0 10  0  0
    1.7002    1.3226    1.0993 C   0  0  0  0  0  0  0  0  0 11  0  0
    2.6145    0.7194    2.1012 C   0  0  0  0  0  0  0  0  0 12  0  0
    2.0715   -0.0017    2.7092 H   0  0  0  0  0  0  0  0  0 13  0  0
    3.4509    0.2070    1.6293 H   0  0  0  0  0  0  0  0  0 14  0  0
    2.9889    1.5036    2.7485 H   0  0  0  0  0  0  0  0  0 15  0  0
    4.7898    0.6844   -0.1999 H   0  0  0  0  0  0  0  0  0 46  0  0
    3.6114    1.6680   -1.0765 H   0  0  0  0  0  0  0  0  0 47  0  0
    4.8602    0.7705   -1.9468 H   0  0  0  0  0  0  0  0  0 48  0  0
  1  2  1  0
  2  3  4  0
  3  4  1  0
  3  5  4  0
  5  6  1  0
  5  7  4  0
  7  8  1  0
  7  9  4  0
  9 10  1  0
  9 11  4  0
 11 12  1  0
 12 13  4  0
 13 14  1  0
 14 15  1  0
 15 16  1  0
 15 17  1  0
 17 18  2  0
 17 19  1  0
 19 20  1  0
 20 21  1  0
 20 22  1  0
 20 23  1  0
 23 24  4  0
 24 25  4  0
 25 26  1  0
 25 27  4  0
 27 28  1  0
 27 29  4  0
 29 30  1  0
 29 31  4  0
 31 32  1  0
 24 33  1  0
 33 34  1  0
 33 35  1  0
 33 36  1  0
 36 37  1  0
 36 38  1  0
 15 39  1  0
 13 40  4  0
 40 41  4  0
 41 42  4  0
 42 43  1  0
 43 44  1  0
 43 45  1  0
 43 46  1  0
  1 47  1  0
  1 48  1  0
  1 49  1  0
 11  2  4  0
 42 12  4  0
 36 19  1  0
 31 23  4  0
M  END
>  <sample_id>  (125)
train::Cc1ccccc1-n1c(C)nnc1SCC(=O)N1CCc2ccccc2C1__gen0001

>  <partition>  (125)
BAT_EXTERNAL_CONFIRM

>  <method>  (125)
BA_seed193

>  <candidate>  (125)
primary

$$$$
train::Cc1ccccc1-n1c(C)nnc1SCC(=O)N1CCc2ccccc2C1__gen0002
     RDKit          3D

 49 52  0  0  0  0  0  0  0  0999 V2000
   -2.9756   -1.1370   -1.7749 C   0  0  0  0  0  0  0  0  0  0  0  0
   -2.3565   -2.4986   -1.5932 C   0  0  0  0  0  0  0  0  0  1  0  0
   -3.1443   -3.6412   -1.6709 C   0  0  0  0  0  0  0  0  0  2  0  0
   -4.1958   -3.5222   -1.8653 H   0  0  0  0  0  0  0  0  0 45  0  0
   -2.6012   -4.8950   -1.5059 C   0  0  0  0  0  0  0  0  0  3  0  0
   -3.2391   -5.7619   -1.5594 H   0  0  0  0  0  0  0  0  0 44  0  0
   -1.2438   -5.0405   -1.2375 C   0  0  0  0  0  0  0  0  0  4  0  0
   -0.8350   -6.0291   -1.1054 H   0  0  0  0  0  0  0  0  0 43  0  0
   -0.4437   -3.9261   -1.1567 C   0  0  0  0  0  0  0  0  0  5  0  0
    0.6148   -4.0119   -0.9588 H   0  0  0  0  0  0  0  0  0 42  0  0
   -0.9894   -2.6599   -1.3379 C   0  0  0  0  0  0  0  0  0  6  0  0
   -0.1222   -1.5520   -1.2319 N   0  0  0  0  0  0  0  0  0  7  0  0
    0.5564   -1.1523   -0.1197 C   0  0  0  0  0  0  0  0  0  8  0  0
    0.3649   -1.9153    1.4491 S   0  0  0  0  0  0  0  0  0 16  0  0
   -1.1111   -0.9718    2.0201 C   0  0  0  0  0  0  0  0  0 17  0  0
   -2.0092   -1.4855    1.6553 H   0  0  0  0  0  0  0  0  0 18  0  0
   -1.1126    0.4298    1.4346 C   0  0  0  0  0  0  0  0  0 19  0  0
   -1.8916    0.6997    0.5439 O   0  0  0  0  0  0  0  0  0 20  0  0
   -0.2383    1.3172    1.9395 N   0  0  0  0  0  0  0  0  0 21  0  0
   -0.1800    2.6418    1.3324 C   0  0  0  0  0  0  0  0  0 22  0  0
   -0.6559    2.5486    0.3467 H   0  0  0  0  0  0  0  0  0 39  0  0
   -0.7914    3.3314    1.9264 H   0  0  0  0  0  0  0  0  0 40  0  0
    1.2151    3.1924    1.1997 C   0  0  0  0  0  0  0  0  0 23  0  0
    2.3187    2.5314    1.7216 C   0  0  0  0  0  0  0  0  0 24  0  0
    3.5753    3.0908    1.5753 C   0  0  0  0  0  0  0  0  0 25  0  0
    4.4374    2.5612    1.9793 H   0  0  0  0  0  0  0  0  0 32  0  0
    3.7577    4.3052    0.9415 C   0  0  0  0  0  0  0  0  0 26  0  0
    4.7398    4.7232    0.8293 H   0  0  0  0  0  0  0  0  0 31  0  0
    2.6564    4.9634    0.4185 C   0  0  0  0  0  0  0  0  0 27  0  0
    2.7659    5.9102   -0.0884 H   0  0  0  0  0  0  0  0  0 30  0  0
    1.3903    4.4092    0.5529 C   0  0  0  0  0  0  0  0  0 28  0  0
    0.5253    4.9200    0.1531 H   0  0  0  0  0  0  0  0  0 29  0  0
    2.1454    1.2027    2.3971 C   0  0  0  0  0  0  0  0  0 33  0  0
    2.2904    0.4304    1.6351 H   0  0  0  0  0  0  0  0  0 37  0  0
    2.8883    1.0600    3.1842 H   0  0  0  0  0  0  0  0  0 38  0  0
    0.7353    1.1050    2.9819 C   0  0  0  0  0  0  0  0  0 34  0  0
    0.5902    0.1380    3.4622 H   0  0  0  0  0  0  0  0  0 35  0  0
    0.6065    1.8908    3.7350 H   0  0  0  0  0  0  0  0  0 36  0  0
   -1.1007   -0.9981    3.1051 H   0  0  0  0  0  0  0  0  0 41  0  0
    1.3370   -0.1418   -0.3786 N   0  0  0  0  0  0  0  0  0  9  0  0
    1.1982    0.1342   -1.6855 N   0  0  0  0  0  0  0  0  0 10  0  0
    0.3484   -0.7069   -2.2000 C   0  0  0  0  0  0  0  0  0 11  0  0
   -0.0449   -0.7711   -3.6261 C   0  0  0  0  0  0  0  0  0 12  0  0
    0.8102   -1.0905   -4.2150 H   0  0  0  0  0  0  0  0  0 13  0  0
   -0.8575   -1.4716   -3.7693 H   0  0  0  0  0  0  0  0  0 14  0  0
   -0.3256    0.2266   -3.9713 H   0  0  0  0  0  0  0  0  0 15  0  0
   -3.9756   -1.1298   -1.3617 H   0  0  0  0  0  0  0  0  0 46  0  0
   -3.0361   -0.8911   -2.8307 H   0  0  0  0  0  0  0  0  0 47  0  0
   -2.3909   -0.3619   -1.2757 H   0  0  0  0  0  0  0  0  0 48  0  0
  1  2  1  0
  2  3  4  0
  3  4  1  0
  3  5  4  0
  5  6  1  0
  5  7  4  0
  7  8  1  0
  7  9  4  0
  9 10  1  0
  9 11  4  0
 11 12  1  0
 12 13  4  0
 13 14  1  0
 14 15  1  0
 15 16  1  0
 15 17  1  0
 17 18  2  0
 17 19  1  0
 19 20  1  0
 20 21  1  0
 20 22  1  0
 20 23  1  0
 23 24  4  0
 24 25  4  0
 25 26  1  0
 25 27  4  0
 27 28  1  0
 27 29  4  0
 29 30  1  0
 29 31  4  0
 31 32  1  0
 24 33  1  0
 33 34  1  0
 33 35  1  0
 33 36  1  0
 36 37  1  0
 36 38  1  0
 15 39  1  0
 13 40  4  0
 40 41  4  0
 41 42  4  0
 42 43  1  0
 43 44  1  0
 43 45  1  0
 43 46  1  0
  1 47  1  0
  1 48  1  0
  1 49  1  0
 11  2  4  0
 42 12  4  0
 36 19  1  0
 31 23  4  0
M  END
>  <sample_id>  (126)
train::Cc1ccccc1-n1c(C)nnc1SCC(=O)N1CCc2ccccc2C1__gen0002

>  <partition>  (126)
BAT_EXTERNAL_CONFIRM

>  <method>  (126)
BA_seed193

>  <candidate>  (126)
primary

$$$$
train::Cc1ccc(C(C(=O)NC2CCCCC2)N(Cc2ccccc2)C(=O)Cc2c[nH]c3ccccc23)o1__gen0000
     RDKit          3D

 69 73  0  0  0  0  0  0  0  0999 V2000
   -1.5568    5.6936   -0.6588 C   0  0  0  0  0  0  0  0  0  0  0  0
   -1.8287    4.3555   -0.0571 C   0  0  0  0  0  0  0  0  0  1  0  0
   -2.9910    3.7484    0.3374 C   0  0  0  0  0  0  0  0  0  2  0  0
   -3.9794    4.1649    0.3396 H   0  0  0  0  0  0  0  0  0 65  0  0
   -2.6287    2.4535    0.7882 C   0  0  0  0  0  0  0  0  0  3  0  0
   -3.2977    1.7156    1.1717 H   0  0  0  0  0  0  0  0  0 64  0  0
   -1.2811    2.3641    0.6299 C   0  0  0  0  0  0  0  0  0  4  0  0
   -0.2704    1.2891    0.8832 C   0  0  2  0  0  0  0  0  0  6  0  0
    0.3924    0.8415   -0.3478 N   0  0  0  0  0  0  0  0  0  7  0  0
    1.6250    0.3033   -0.2152 C   0  0  0  0  0  0  0  0  0  8  0  0
    2.1629    0.2197    0.8818 O   0  0  0  0  0  0  0  0  0  9  0  0
    2.3710   -0.1288   -1.4539 C   0  0  0  0  0  0  0  0  0 10  0  0
    1.6384   -1.0114   -2.4187 C   0  0  0  0  0  0  0  0  0 11  0  0
    1.6276   -0.8873   -3.7793 C   0  0  0  0  0  0  0  0  0 12  0  0
    2.1291   -0.1715   -4.4029 H   0  0  0  0  0  0  0  0  0 25  0  0
    0.8550   -1.8677   -4.3312 N   0  0  0  0  0  0  0  0  0 13  0  0
    0.6809   -1.9801   -5.3161 H   0  0  0  0  0  0  0  0  0 24  0  0
    0.3426   -2.6479   -3.3389 C   0  0  0  0  0  0  0  0  0 14  0  0
   -0.5287   -3.7301   -3.3939 C   0  0  0  0  0  0  0  0  0 15  0  0
   -0.8831   -4.1142   -4.3329 H   0  0  0  0  0  0  0  0  0 23  0  0
   -0.8800   -4.3211   -2.1932 C   0  0  0  0  0  0  0  0  0 16  0  0
   -1.5526   -5.1657   -2.1966 H   0  0  0  0  0  0  0  0  0 22  0  0
   -0.4165   -3.8342   -0.9765 C   0  0  0  0  0  0  0  0  0 17  0  0
   -0.7209   -4.3247   -0.0616 H   0  0  0  0  0  0  0  0  0 21  0  0
    0.4377   -2.7578   -0.9162 C   0  0  0  0  0  0  0  0  0 18  0  0
    0.8124   -2.3873    0.0314 H   0  0  0  0  0  0  0  0  0 20  0  0
    0.8092   -2.1325   -2.1119 C   0  0  0  0  0  0  0  0  0 19  0  0
    3.2531   -0.6601   -1.1062 H   0  0  0  0  0  0  0  0  0 26  0  0
    2.6913    0.7778   -1.9779 H   0  0  0  0  0  0  0  0  0 27  0  0
   -0.3502    0.9108   -1.5823 C   0  0  0  0  0  0  0  0  0 28  0  0
    0.1517    1.9314   -2.5618 C   0  0  0  0  0  0  0  0  0 29  0  0
    0.9298    3.0195   -2.1806 C   0  0  0  0  0  0  0  0  0 30  0  0
    1.2092    3.1417   -1.1476 H   0  0  0  0  0  0  0  0  0 39  0  0
    1.3658    3.9371   -3.1172 C   0  0  0  0  0  0  0  0  0 31  0  0
    1.9723    4.7754   -2.7970 H   0  0  0  0  0  0  0  0  0 38  0  0
    1.0377    3.7894   -4.4516 C   0  0  0  0  0  0  0  0  0 32  0  0
    1.3699    4.5068   -5.1865 H   0  0  0  0  0  0  0  0  0 37  0  0
    0.2563    2.7201   -4.8422 C   0  0  0  0  0  0  0  0  0 33  0  0
   -0.0065    2.5960   -5.8894 H   0  0  0  0  0  0  0  0  0 36  0  0
   -0.1687    1.8010   -3.9032 C   0  0  0  0  0  0  0  0  0 34  0  0
   -0.7831    0.9718   -4.2163 H   0  0  0  0  0  0  0  0  0 35  0  0
   -1.3851    1.1280   -1.3284 H   0  0  0  0  0  0  0  0  0 40  0  0
   -0.3958   -0.0724   -2.0496 H   0  0  0  0  0  0  0  0  0 41  0  0
    0.5162    1.6880    1.5265 H   0  0  0  0  0  0  0  0  0 42  0  0
   -0.8260    0.0370    1.6077 C   0  0  0  0  0  0  0  0  0 43  0  0
   -1.8413   -0.5323    1.2551 O   0  0  0  0  0  0  0  0  0 44  0  0
   -0.0587   -0.3138    2.6396 N   0  0  0  0  0  0  0  0  0 45  0  0
    0.8556    0.0906    2.7571 H   0  0  0  0  0  0  0  0  0 46  0  0
   -0.3047   -1.5046    3.4837 C   0  0  2  0  0  0  0  0  0 47  0  0
   -1.3147   -1.8423    3.2539 H   0  0  0  0  0  0  0  0  0 63  0  0
   -0.2016   -1.0937    4.9508 C   0  0  0  0  0  0  0  0  0 48  0  0
    0.7944   -0.6977    5.1276 H   0  0  0  0  0  0  0  0  0 61  0  0
   -0.9240   -0.3082    5.1660 H   0  0  0  0  0  0  0  0  0 62  0  0
   -0.4515   -2.2902    5.8442 C   0  0  0  0  0  0  0  0  0 49  0  0
   -0.3701   -2.0073    6.8978 H   0  0  0  0  0  0  0  0  0 59  0  0
   -1.4557   -2.6600    5.6795 H   0  0  0  0  0  0  0  0  0 60  0  0
    0.5536   -3.3990    5.5526 C   0  0  0  0  0  0  0  0  0 50  0  0
    1.5715   -3.0798    5.7741 H   0  0  0  0  0  0  0  0  0 57  0  0
    0.3421   -4.2664    6.1863 H   0  0  0  0  0  0  0  0  0 58  0  0
    0.4706   -3.8064    4.0819 C   0  0  0  0  0  0  0  0  0 51  0  0
   -0.5072   -4.2247    3.8544 H   0  0  0  0  0  0  0  0  0 55  0  0
    1.2062   -4.5912    3.8786 H   0  0  0  0  0  0  0  0  0 56  0  0
    0.7046   -2.6073    3.1642 C   0  0  0  0  0  0  0  0  0 52  0  0
    0.6010   -2.9216    2.1289 H   0  0  0  0  0  0  0  0  0 53  0  0
    1.7080   -2.2116    3.2894 H   0  0  0  0  0  0  0  0  0 54  0  0
   -0.7928    3.5132    0.1253 O   0  0  0  0  0  0  0  0  0  5  0  0
   -0.6655    6.1243   -0.2124 H   0  0  0  0  0  0  0  0  0 66  0  0
   -2.4204    6.3502   -0.4954 H   0  0  0  0  0  0  0  0  0 67  0  0
   -1.4057    5.5934   -1.7399 H   0  0  0  0  0  0  0  0  0 68  0  0
  1  2  1  0
  2  3  4  0
  3  4  1  0
  3  5  4  0
  5  6  1  0
  5  7  4  0
  7  8  1  0
  8  9  1  0
  9 10  1  0
 10 11  2  0
 10 12  1  0
 12 13  1  0
 13 14  4  0
 14 15  1  0
 14 16  4  0
 16 17  1  0
 16 18  4  0
 18 19  4  0
 19 20  1  0
 19 21  4  0
 21 22  1  0
 21 23  4  0
 23 24  1  0
 23 25  4  0
 25 26  1  0
 25 27  4  0
 12 28  1  0
 12 29  1  0
  9 30  1  0
 30 31  1  0
 31 32  4  0
 32 33  1  0
 32 34  4  0
 34 35  1  0
 34 36  4  0
 36 37  1  0
 36 38  4  0
 38 39  1  0
 38 40  4  0
 40 41  1  0
 30 42  1  0
 30 43  1  0
  8 44  1  1
  8 45  1  0
 45 46  2  0
 45 47  1  0
 47 48  1  0
 47 49  1  0
 49 50  1  1
 49 51  1  0
 51 52  1  0
 51 53  1  0
 51 54  1  0
 54 55  1  0
 54 56  1  0
 54 57  1  0
 57 58  1  0
 57 59  1  0
 57 60  1  0
 60 61  1  0
 60 62  1  0
 60 63  1  0
 63 64  1  0
 63 65  1  0
  7 66  4  0
  1 67  1  0
  1 68  1  0
  1 69  1  0
 66  2  4  0
 27 13  4  0
 40 31  4  0
 63 49  1  0
 27 18  4  0
M  END
>  <sample_id>  (127)
train::Cc1ccc(C(C(=O)NC2CCCCC2)N(Cc2ccccc2)C(=O)Cc2c[nH]c3ccccc23)o1__gen0000

>  <partition>  (127)
BAT_EXTERNAL_CONFIRM

>  <method>  (127)
BA_seed193

>  <candidate>  (127)
primary

$$$$
train::Cc1ccc(C(C(=O)NC2CCCCC2)N(Cc2ccccc2)C(=O)Cc2c[nH]c3ccccc23)o1__gen0001
     RDKit          3D

 69 73  0  0  0  0  0  0  0  0999 V2000
    2.5036    1.6786   -3.5550 C   0  0  0  0  0  0  0  0  0  0  0  0
    1.8704    0.4372   -3.0100 C   0  0  0  0  0  0  0  0  0  1  0  0
    1.5402   -0.7565   -3.5808 C   0  0  0  0  0  0  0  0  0  2  0  0
    1.6888   -1.0322   -4.5958 H   0  0  0  0  0  0  0  0  0 65  0  0
    0.9467   -1.5344   -2.5541 C   0  0  0  0  0  0  0  0  0  3  0  0
    0.5797   -2.5345   -2.6398 H   0  0  0  0  0  0  0  0  0 64  0  0
    0.9706   -0.7618   -1.4328 C   0  0  0  0  0  0  0  0  0  4  0  0
    0.5238   -1.0779   -0.0214 C   0  0  1  0  0  0  0  0  0  6  0  0
    1.5951   -1.5662    0.7797 N   0  0  0  0  0  0  0  0  0  7  0  0
    1.4595   -2.6479    1.6423 C   0  0  0  0  0  0  0  0  0  8  0  0
    2.3617   -3.0106    2.3668 O   0  0  0  0  0  0  0  0  0  9  0  0
    0.1105   -3.3374    1.6970 C   0  0  0  0  0  0  0  0  0 10  0  0
   -0.9263   -2.4146    2.2552 C   0  0  0  0  0  0  0  0  0 11  0  0
   -0.7706   -1.5975    3.3392 C   0  0  0  0  0  0  0  0  0 12  0  0
    0.0911   -1.4626    3.9682 H   0  0  0  0  0  0  0  0  0 25  0  0
   -1.9109   -0.8626    3.5389 N   0  0  0  0  0  0  0  0  0 13  0  0
   -2.0324   -0.1748    4.2740 H   0  0  0  0  0  0  0  0  0 24  0  0
   -2.8284   -1.1958    2.5970 C   0  0  0  0  0  0  0  0  0 14  0  0
   -4.1044   -0.6985    2.3599 C   0  0  0  0  0  0  0  0  0 15  0  0
   -4.5245    0.0746    2.9800 H   0  0  0  0  0  0  0  0  0 23  0  0
   -4.7964   -1.2230    1.2930 C   0  0  0  0  0  0  0  0  0 16  0  0
   -5.7965   -0.8633    1.0803 H   0  0  0  0  0  0  0  0  0 22  0  0
   -4.2524   -2.2235    0.4916 C   0  0  0  0  0  0  0  0  0 17  0  0
   -4.8482   -2.6175   -0.3200 H   0  0  0  0  0  0  0  0  0 21  0  0
   -2.9904   -2.7274    0.7230 C   0  0  0  0  0  0  0  0  0 18  0  0
   -2.5949   -3.5035    0.0974 H   0  0  0  0  0  0  0  0  0 20  0  0
   -2.2425   -2.1956    1.7730 C   0  0  0  0  0  0  0  0  0 19  0  0
   -0.1852   -3.7062    0.7159 H   0  0  0  0  0  0  0  0  0 26  0  0
    0.2279   -4.1910    2.3674 H   0  0  0  0  0  0  0  0  0 27  0  0
    2.8672   -0.8529    0.8058 C   0  0  0  0  0  0  0  0  0 28  0  0
    3.6593   -1.0152   -0.4673 C   0  0  0  0  0  0  0  0  0 29  0  0
    3.6701   -2.2211   -1.1533 C   0  0  0  0  0  0  0  0  0 30  0  0
    3.1266   -3.0586   -0.7592 H   0  0  0  0  0  0  0  0  0 39  0  0
    4.3809   -2.3540   -2.3334 C   0  0  0  0  0  0  0  0  0 31  0  0
    4.3824   -3.2948   -2.8610 H   0  0  0  0  0  0  0  0  0 38  0  0
    5.0903   -1.2793   -2.8387 C   0  0  0  0  0  0  0  0  0 32  0  0
    5.6438   -1.3821   -3.7609 H   0  0  0  0  0  0  0  0  0 37  0  0
    5.1005   -0.0752   -2.1469 C   0  0  0  0  0  0  0  0  0 33  0  0
    5.6636    0.7581   -2.5484 H   0  0  0  0  0  0  0  0  0 36  0  0
    4.3663    0.0558   -0.9820 C   0  0  0  0  0  0  0  0  0 34  0  0
    4.3793    0.9974   -0.4633 H   0  0  0  0  0  0  0  0  0 35  0  0
    2.6791    0.2080    0.9678 H   0  0  0  0  0  0  0  0  0 40  0  0
    3.4302   -1.2636    1.6364 H   0  0  0  0  0  0  0  0  0 41  0  0
   -0.2711   -1.8207   -0.0948 H   0  0  0  0  0  0  0  0  0 42  0  0
   -0.1311    0.2127    0.5468 C   0  0  0  0  0  0  0  0  0 43  0  0
    0.3536    0.8364    1.4791 O   0  0  0  0  0  0  0  0  0 44  0  0
   -1.2842    0.5202   -0.0464 N   0  0  0  0  0  0  0  0  0 45  0  0
   -1.6516   -0.1200   -0.7376 H   0  0  0  0  0  0  0  0  0 46  0  0
   -2.0112    1.7864    0.1169 C   0  0  2  0  0  0  0  0  0 47  0  0
   -2.9770    1.6628   -0.3610 H   0  0  0  0  0  0  0  0  0 63  0  0
   -1.2981    2.9192   -0.6456 C   0  0  0  0  0  0  0  0  0 48  0  0
   -1.2419    2.6538   -1.7043 H   0  0  0  0  0  0  0  0  0 61  0  0
   -0.2913    3.0307   -0.2537 H   0  0  0  0  0  0  0  0  0 62  0  0
   -2.1056    4.2133   -0.4939 C   0  0  0  0  0  0  0  0  0 49  0  0
   -1.5875    5.0172   -1.0267 H   0  0  0  0  0  0  0  0  0 59  0  0
   -3.1081    4.1037   -0.9088 H   0  0  0  0  0  0  0  0  0 60  0  0
   -2.2380    4.5744    0.9895 C   0  0  0  0  0  0  0  0  0 50  0  0
   -1.2574    4.7504    1.4143 H   0  0  0  0  0  0  0  0  0 57  0  0
   -2.8160    5.4920    1.0950 H   0  0  0  0  0  0  0  0  0 58  0  0
   -2.9275    3.4517    1.7456 C   0  0  0  0  0  0  0  0  0 51  0  0
   -3.9375    3.3076    1.3677 H   0  0  0  0  0  0  0  0  0 55  0  0
   -2.9848    3.7099    2.8127 H   0  0  0  0  0  0  0  0  0 56  0  0
   -2.1259    2.1665    1.6002 C   0  0  0  0  0  0  0  0  0 52  0  0
   -1.1163    2.2784    2.0224 H   0  0  0  0  0  0  0  0  0 53  0  0
   -2.6225    1.3529    2.1206 H   0  0  0  0  0  0  0  0  0 54  0  0
    1.5249    0.4482   -1.7110 O   0  0  0  0  0  0  0  0  0  5  0  0
    2.9080    1.4801   -4.5390 H   0  0  0  0  0  0  0  0  0 66  0  0
    3.3208    1.9958   -2.9048 H   0  0  0  0  0  0  0  0  0 67  0  0
    1.7722    2.4807   -3.6090 H   0  0  0  0  0  0  0  0  0 68  0  0
  1  2  1  0
  2  3  4  0
  3  4  1  0
  3  5  4  0
  5  6  1  0
  5  7  4  0
  7  8  1  0
  8  9  1  0
  9 10  1  0
 10 11  2  0
 10 12  1  0
 12 13  1  0
 13 14  4  0
 14 15  1  0
 14 16  4  0
 16 17  1  0
 16 18  4  0
 18 19  4  0
 19 20  1  0
 19 21  4  0
 21 22  1  0
 21 23  4  0
 23 24  1  0
 23 25  4  0
 25 26  1  0
 25 27  4  0
 12 28  1  0
 12 29  1  0
  9 30  1  0
 30 31  1  0
 31 32  4  0
 32 33  1  0
 32 34  4  0
 34 35  1  0
 34 36  4  0
 36 37  1  0
 36 38  4  0
 38 39  1  0
 38 40  4  0
 40 41  1  0
 30 42  1  0
 30 43  1  0
  8 44  1  1
  8 45  1  0
 45 46  2  0
 45 47  1  0
 47 48  1  0
 47 49  1  0
 49 50  1  6
 49 51  1  0
 51 52  1  0
 51 53  1  0
 51 54  1  0
 54 55  1  0
 54 56  1  0
 54 57  1  0
 57 58  1  0
 57 59  1  0
 57 60  1  0
 60 61  1  0
 60 62  1  0
 60 63  1  0
 63 64  1  0
 63 65  1  0
  7 66  4  0
  1 67  1  0
  1 68  1  0
  1 69  1  0
 66  2  4  0
 27 13  4  0
 40 31  4  0
 63 49  1  0
 27 18  4  0
M  END
>  <sample_id>  (128)
train::Cc1ccc(C(C(=O)NC2CCCCC2)N(Cc2ccccc2)C(=O)Cc2c[nH]c3ccccc23)o1__gen0001

>  <partition>  (128)
BAT_EXTERNAL_CONFIRM

>  <method>  (128)
BA_seed193

>  <candidate>  (128)
primary

$$$$
train::Cc1ccc(C(C(=O)NC2CCCCC2)N(Cc2ccccc2)C(=O)Cc2c[nH]c3ccccc23)o1__gen0002
     RDKit          3D

 69 73  0  0  0  0  0  0  0  0999 V2000
    0.3314   -0.6037    6.5252 C   0  0  0  0  0  0  0  0  0  0  0  0
    0.3705    0.3851    5.4134 C   0  0  0  0  0  0  0  0  0  1  0  0
    0.7769    1.6840    5.3569 C   0  0  0  0  0  0  0  0  0  2  0  0
    1.1450    2.2769    6.1679 H   0  0  0  0  0  0  0  0  0 65  0  0
    0.5972    2.1062    4.0125 C   0  0  0  0  0  0  0  0  0  3  0  0
    0.8245    3.0728    3.6169 H   0  0  0  0  0  0  0  0  0 64  0  0
    0.0971    1.0302    3.3434 C   0  0  0  0  0  0  0  0  0  4  0  0
   -0.3127    0.8232    1.9170 C   0  0  2  0  0  0  0  0  0  6  0  0
    0.4949   -0.2045    1.2923 N   0  0  0  0  0  0  0  0  0  7  0  0
   -0.1145   -1.0370    0.3957 C   0  0  0  0  0  0  0  0  0  8  0  0
   -1.2675   -0.8286    0.0364 O   0  0  0  0  0  0  0  0  0  9  0  0
    0.6657   -2.2422   -0.1046 C   0  0  0  0  0  0  0  0  0 10  0  0
   -0.0242   -2.8994   -1.2542 C   0  0  0  0  0  0  0  0  0 11  0  0
   -0.5919   -2.2935   -2.3354 C   0  0  0  0  0  0  0  0  0 12  0  0
   -0.6436   -1.2585   -2.5706 H   0  0  0  0  0  0  0  0  0 25  0  0
   -1.1212   -3.2340   -3.1725 N   0  0  0  0  0  0  0  0  0 13  0  0
   -1.6019   -3.0466   -4.0359 H   0  0  0  0  0  0  0  0  0 24  0  0
   -0.9218   -4.4809   -2.6373 C   0  0  0  0  0  0  0  0  0 14  0  0
   -1.2726   -5.7412   -3.1125 C   0  0  0  0  0  0  0  0  0 15  0  0
   -1.8169   -5.8487   -4.0321 H   0  0  0  0  0  0  0  0  0 23  0  0
   -0.9144   -6.8237   -2.3425 C   0  0  0  0  0  0  0  0  0 16  0  0
   -1.1846   -7.8187   -2.6782 H   0  0  0  0  0  0  0  0  0 22  0  0
   -0.2230   -6.6782   -1.1365 C   0  0  0  0  0  0  0  0  0 17  0  0
    0.0368   -7.5548   -0.5849 H   0  0  0  0  0  0  0  0  0 21  0  0
    0.1255   -5.4329   -0.6667 C   0  0  0  0  0  0  0  0  0 18  0  0
    0.6683   -5.3275    0.2645 H   0  0  0  0  0  0  0  0  0 20  0  0
   -0.2067   -4.3058   -1.4230 C   0  0  0  0  0  0  0  0  0 19  0  0
    0.7689   -2.9468    0.7239 H   0  0  0  0  0  0  0  0  0 26  0  0
    1.6688   -1.9363   -0.3965 H   0  0  0  0  0  0  0  0  0 27  0  0
    1.9343   -0.1486    1.5114 C   0  0  0  0  0  0  0  0  0 28  0  0
    2.5574    0.9173    0.6461 C   0  0  0  0  0  0  0  0  0 29  0  0
    3.0131    2.1066    1.1859 C   0  0  0  0  0  0  0  0  0 30  0  0
    2.9730    2.2470    2.2504 H   0  0  0  0  0  0  0  0  0 39  0  0
    3.5266    3.1013    0.3807 C   0  0  0  0  0  0  0  0  0 31  0  0
    3.8679    4.0227    0.8221 H   0  0  0  0  0  0  0  0  0 38  0  0
    3.5779    2.9307   -0.9909 C   0  0  0  0  0  0  0  0  0 32  0  0
    3.9494    3.7069   -1.6306 H   0  0  0  0  0  0  0  0  0 37  0  0
    3.1234    1.7464   -1.5459 C   0  0  0  0  0  0  0  0  0 33  0  0
    3.1555    1.6000   -2.6219 H   0  0  0  0  0  0  0  0  0 36  0  0
    2.6329    0.7446   -0.7376 C   0  0  0  0  0  0  0  0  0 34  0  0
    2.2535   -0.1653   -1.1867 H   0  0  0  0  0  0  0  0  0 35  0  0
    2.3718   -1.1233    1.2897 H   0  0  0  0  0  0  0  0  0 40  0  0
    2.1223    0.0572    2.5685 H   0  0  0  0  0  0  0  0  0 41  0  0
   -1.3390    0.4451    1.9335 H   0  0  0  0  0  0  0  0  0 42  0  0
   -0.2482    2.1181    1.0626 C   0  0  0  0  0  0  0  0  0 43  0  0
    0.3232    3.1309    1.3854 O   0  0  0  0  0  0  0  0  0 44  0  0
   -0.9081    1.9545   -0.0877 N   0  0  0  0  0  0  0  0  0 45  0  0
   -1.3580    1.0671   -0.2540 H   0  0  0  0  0  0  0  0  0 46  0  0
   -0.9428    2.9532   -1.1256 C   0  0  2  0  0  0  0  0  0 47  0  0
   -0.2045    3.7188   -0.8471 H   0  0  0  0  0  0  0  0  0 63  0  0
   -2.3267    3.6149   -1.1772 C   0  0  0  0  0  0  0  0  0 48  0  0
   -2.2769    4.4888   -1.8244 H   0  0  0  0  0  0  0  0  0 61  0  0
   -2.6001    3.9669   -0.1795 H   0  0  0  0  0  0  0  0  0 62  0  0
   -3.4039    2.6559   -1.6907 C   0  0  0  0  0  0  0  0  0 49  0  0
   -3.5003    1.8358   -0.9801 H   0  0  0  0  0  0  0  0  0 59  0  0
   -4.3606    3.1667   -1.7613 H   0  0  0  0  0  0  0  0  0 60  0  0
   -3.0082    2.1140   -3.0667 C   0  0  0  0  0  0  0  0  0 50  0  0
   -3.7555    1.3954   -3.4340 H   0  0  0  0  0  0  0  0  0 57  0  0
   -2.9536    2.9545   -3.7738 H   0  0  0  0  0  0  0  0  0 58  0  0
   -1.6543    1.4048   -2.9764 C   0  0  0  0  0  0  0  0  0 51  0  0
   -1.7281    0.5681   -2.2813 H   0  0  0  0  0  0  0  0  0 55  0  0
   -1.3682    1.0268   -3.9577 H   0  0  0  0  0  0  0  0  0 56  0  0
   -0.5969    2.3660   -2.4864 C   0  0  0  0  0  0  0  0  0 52  0  0
   -0.4747    3.1813   -3.2037 H   0  0  0  0  0  0  0  0  0 53  0  0
    0.3673    1.8533   -2.4089 H   0  0  0  0  0  0  0  0  0 54  0  0
   -0.0612   -0.0020    4.2028 O   0  0  0  0  0  0  0  0  0  5  0  0
    1.0304   -1.4184    6.3389 H   0  0  0  0  0  0  0  0  0 66  0  0
    0.6072   -0.1092    7.4513 H   0  0  0  0  0  0  0  0  0 67  0  0
   -0.6713   -1.0296    6.6182 H   0  0  0  0  0  0  0  0  0 68  0  0
  1  2  1  0
  2  3  4  0
  3  4  1  0
  3  5  4  0
  5  6  1  0
  5  7  4  0
  7  8  1  0
  8  9  1  0
  9 10  1  0
 10 11  2  0
 10 12  1  0
 12 13  1  0
 13 14  4  0
 14 15  1  0
 14 16  4  0
 16 17  1  0
 16 18  4  0
 18 19  4  0
 19 20  1  0
 19 21  4  0
 21 22  1  0
 21 23  4  0
 23 24  1  0
 23 25  4  0
 25 26  1  0
 25 27  4  0
 12 28  1  0
 12 29  1  0
  9 30  1  0
 30 31  1  0
 31 32  4  0
 32 33  1  0
 32 34  4  0
 34 35  1  0
 34 36  4  0
 36 37  1  0
 36 38  4  0
 38 39  1  0
 38 40  4  0
 40 41  1  0
 30 42  1  0
 30 43  1  0
  8 44  1  1
  8 45  1  0
 45 46  2  0
 45 47  1  0
 47 48  1  0
 47 49  1  0
 49 50  1  1
 49 51  1  0
 51 52  1  0
 51 53  1  0
 51 54  1  0
 54 55  1  0
 54 56  1  0
 54 57  1  0
 57 58  1  0
 57 59  1  0
 57 60  1  0
 60 61  1  0
 60 62  1  0
 60 63  1  0
 63 64  1  0
 63 65  1  0
  7 66  4  0
  1 67  1  0
  1 68  1  0
  1 69  1  0
 66  2  4  0
 27 13  4  0
 40 31  4  0
 63 49  1  0
 27 18  4  0
M  END
>  <sample_id>  (129)
train::Cc1ccc(C(C(=O)NC2CCCCC2)N(Cc2ccccc2)C(=O)Cc2c[nH]c3ccccc23)o1__gen0002

>  <partition>  (129)
BAT_EXTERNAL_CONFIRM

>  <method>  (129)
BA_seed193

>  <candidate>  (129)
primary

$$$$
train::Cc1cc(C)nc(NC(=O)c2ccc(Cl)cc2Cl)n1__gen0000
     RDKit          3D

 30 31  0  0  0  0  0  0  0  0999 V2000
   -1.1495    1.7705    1.2643 C   0  0  0  0  0  0  0  0  0  0  0  0
    0.1719    1.4253    0.6509 C   0  0  0  0  0  0  0  0  0  1  0  0
    0.1557    0.3965   -0.2022 N   0  0  0  0  0  0  0  0  0  2  0  0
    1.3185    0.0434   -0.7493 C   0  0  0  0  0  0  0  0  0  3  0  0
    1.3447   -0.9939   -1.6194 N   0  0  0  0  0  0  0  0  0 12  0  0
    0.3398   -1.9081   -1.9187 C   0  0  0  0  0  0  0  0  0 13  0  0
    0.4856   -2.7115   -2.8132 O   0  0  0  0  0  0  0  0  0 14  0  0
   -0.8818   -1.8293   -1.0723 C   0  0  0  0  0  0  0  0  0 15  0  0
   -2.0858   -1.3975   -1.6121 C   0  0  0  0  0  0  0  0  0 16  0  0
   -2.1205   -1.1002   -2.6514 H   0  0  0  0  0  0  0  0  0 25  0  0
   -3.2344   -1.3514   -0.8507 C   0  0  0  0  0  0  0  0  0 17  0  0
   -4.1681   -1.0012   -1.2641 H   0  0  0  0  0  0  0  0  0 24  0  0
   -3.1707   -1.7259    0.4824 C   0  0  0  0  0  0  0  0  0 18  0  0
   -4.5878   -1.6483    1.4643 Cl  0  0  0  0  0  0  0  0  0 23  0  0
   -1.9922   -2.1782    1.0467 C   0  0  0  0  0  0  0  0  0 19  0  0
   -1.9566   -2.4922    2.0861 H   0  0  0  0  0  0  0  0  0 22  0  0
   -0.8531   -2.2320    0.2552 C   0  0  0  0  0  0  0  0  0 20  0  0
    0.6419   -2.7673    0.9387 Cl  0  0  0  0  0  0  0  0  0 21  0  0
    2.2255   -1.1442   -2.0998 H   0  0  0  0  0  0  0  0  0 26  0  0
    2.4855    0.6567   -0.5515 N   0  0  0  0  0  0  0  0  0  4  0  0
    2.5071    1.6742    0.2833 C   0  0  0  0  0  0  0  0  0  5  0  0
    3.8152    2.3481    0.5051 C   0  0  0  0  0  0  0  0  0  8  0  0
    3.7590    3.3923    0.1898 H   0  0  0  0  0  0  0  0  0  9  0  0
    4.0828    2.3266    1.5593 H   0  0  0  0  0  0  0  0  0 10  0  0
    4.5902    1.8533   -0.0762 H   0  0  0  0  0  0  0  0  0 11  0  0
    1.3524    2.0985    0.9338 C   0  0  0  0  0  0  0  0  0  6  0  0
    1.3609    2.9346    1.6093 H   0  0  0  0  0  0  0  0  0  7  0  0
   -1.0233    2.5476    2.0155 H   0  0  0  0  0  0  0  0  0 27  0  0
   -1.5892    0.8855    1.7088 H   0  0  0  0  0  0  0  0  0 28  0  0
   -1.8236    2.1282    0.4878 H   0  0  0  0  0  0  0  0  0 29  0  0
  1  2  1  0
  2  3  4  0
  3  4  4  0
  4  5  1  0
  5  6  1  0
  6  7  2  0
  6  8  1  0
  8  9  4  0
  9 10  1  0
  9 11  4  0
 11 12  1  0
 11 13  4  0
 13 14  1  0
 13 15  4  0
 15 16  1  0
 15 17  4  0
 17 18  1  0
  5 19  1  0
  4 20  4  0
 20 21  4  0
 21 22  1  0
 22 23  1  0
 22 24  1  0
 22 25  1  0
 21 26  4  0
 26 27  1  0
  1 28  1  0
  1 29  1  0
  1 30  1  0
 26  2  4  0
 17  8  4  0
M  END
>  <sample_id>  (130)
train::Cc1cc(C)nc(NC(=O)c2ccc(Cl)cc2Cl)n1__gen0000

>  <partition>  (130)
BAT_EXTERNAL_CONFIRM

>  <method>  (130)
BA_seed193

>  <candidate>  (130)
primary

$$$$
train::Cc1cc(C)nc(NC(=O)c2ccc(Cl)cc2Cl)n1__gen0001
     RDKit          3D

 30 31  0  0  0  0  0  0  0  0999 V2000
    2.7266   -3.5758    0.2131 C   0  0  0  0  0  0  0  0  0  0  0  0
    1.7596   -2.4388    0.2835 C   0  0  0  0  0  0  0  0  0  1  0  0
    0.8181   -2.4007   -0.6424 N   0  0  0  0  0  0  0  0  0  2  0  0
   -0.0389   -1.3845   -0.6064 C   0  0  0  0  0  0  0  0  0  3  0  0
   -0.9964   -1.3858   -1.5898 N   0  0  0  0  0  0  0  0  0 12  0  0
   -1.9071   -0.3940   -1.9198 C   0  0  0  0  0  0  0  0  0 13  0  0
   -2.7881   -0.6175   -2.7129 O   0  0  0  0  0  0  0  0  0 14  0  0
   -1.6978    0.9197   -1.2472 C   0  0  0  0  0  0  0  0  0 15  0  0
   -2.6957    1.4411   -0.4274 C   0  0  0  0  0  0  0  0  0 16  0  0
   -3.5892    0.8661   -0.2655 H   0  0  0  0  0  0  0  0  0 25  0  0
   -2.5338    2.6703    0.1896 C   0  0  0  0  0  0  0  0  0 17  0  0
   -3.3092    3.0580    0.8279 H   0  0  0  0  0  0  0  0  0 24  0  0
   -1.3834    3.4024   -0.0345 C   0  0  0  0  0  0  0  0  0 18  0  0
   -1.1631    4.9252    0.7329 Cl  0  0  0  0  0  0  0  0  0 23  0  0
   -0.3842    2.9081   -0.8794 C   0  0  0  0  0  0  0  0  0 19  0  0
    0.5086    3.4941   -1.0584 H   0  0  0  0  0  0  0  0  0 22  0  0
   -0.5500    1.6749   -1.4843 C   0  0  0  0  0  0  0  0  0 20  0  0
    0.6861    1.0804   -2.5155 Cl  0  0  0  0  0  0  0  0  0 21  0  0
   -1.0321   -2.2283   -2.1382 H   0  0  0  0  0  0  0  0  0 26  0  0
   -0.0630   -0.4300    0.3178 N   0  0  0  0  0  0  0  0  0  4  0  0
    0.8858   -0.4542    1.2411 C   0  0  0  0  0  0  0  0  0  5  0  0
    0.8517    0.6410    2.2646 C   0  0  0  0  0  0  0  0  0  8  0  0
    0.1055    1.3832    1.9787 H   0  0  0  0  0  0  0  0  0  9  0  0
    0.6029    0.2347    3.2418 H   0  0  0  0  0  0  0  0  0 10  0  0
    1.8271    1.1178    2.3467 H   0  0  0  0  0  0  0  0  0 11  0  0
    1.8421   -1.4549    1.2716 C   0  0  0  0  0  0  0  0  0  6  0  0
    2.6202   -1.4792    2.0098 H   0  0  0  0  0  0  0  0  0  7  0  0
    3.7410   -3.2014    0.0949 H   0  0  0  0  0  0  0  0  0 27  0  0
    2.6873   -4.1533    1.1346 H   0  0  0  0  0  0  0  0  0 28  0  0
    2.4695   -4.2187   -0.6270 H   0  0  0  0  0  0  0  0  0 29  0  0
  1  2  1  0
  2  3  4  0
  3  4  4  0
  4  5  1  0
  5  6  1  0
  6  7  2  0
  6  8  1  0
  8  9  4  0
  9 10  1  0
  9 11  4  0
 11 12  1  0
 11 13  4  0
 13 14  1  0
 13 15  4  0
 15 16  1  0
 15 17  4  0
 17 18  1  0
  5 19  1  0
  4 20  4  0
 20 21  4  0
 21 22  1  0
 22 23  1  0
 22 24  1  0
 22 25  1  0
 21 26  4  0
 26 27  1  0
  1 28  1  0
  1 29  1  0
  1 30  1  0
 26  2  4  0
 17  8  4  0
M  END
>  <sample_id>  (131)
train::Cc1cc(C)nc(NC(=O)c2ccc(Cl)cc2Cl)n1__gen0001

>  <partition>  (131)
BAT_EXTERNAL_CONFIRM

>  <method>  (131)
BA_seed193

>  <candidate>  (131)
primary

$$$$
train::Cc1cc(C)nc(NC(=O)c2ccc(Cl)cc2Cl)n1__gen0002
     RDKit          3D

 30 31  0  0  0  0  0  0  0  0999 V2000
   -1.3228   -0.6612    1.9993 C   0  0  0  0  0  0  0  0  0  0  0  0
   -1.2185   -0.8531    0.5276 C   0  0  0  0  0  0  0  0  0  1  0  0
   -0.0839   -0.4928   -0.0391 N   0  0  0  0  0  0  0  0  0  2  0  0
    0.0117   -0.6502   -1.3667 C   0  0  0  0  0  0  0  0  0  3  0  0
    1.1634   -0.2602   -2.0012 N   0  0  0  0  0  0  0  0  0 12  0  0
    2.2345    0.4475   -1.5054 C   0  0  0  0  0  0  0  0  0 13  0  0
    3.2442    0.5904   -2.1589 O   0  0  0  0  0  0  0  0  0 14  0  0
    2.0540    1.0360   -0.1402 C   0  0  0  0  0  0  0  0  0 15  0  0
    2.8674    0.6260    0.9106 C   0  0  0  0  0  0  0  0  0 16  0  0
    3.6004   -0.1422    0.7285 H   0  0  0  0  0  0  0  0  0 25  0  0
    2.7214    1.1640    2.1756 C   0  0  0  0  0  0  0  0  0 17  0  0
    3.3471    0.8336    2.9847 H   0  0  0  0  0  0  0  0  0 24  0  0
    1.7705    2.1556    2.3798 C   0  0  0  0  0  0  0  0  0 18  0  0
    1.5702    2.8275    3.9543 Cl  0  0  0  0  0  0  0  0  0 23  0  0
    0.9660    2.6020    1.3449 C   0  0  0  0  0  0  0  0  0 19  0  0
    0.2368    3.3764    1.5144 H   0  0  0  0  0  0  0  0  0 22  0  0
    1.1211    2.0460    0.0905 C   0  0  0  0  0  0  0  0  0 20  0  0
    0.1139    2.5981   -1.1969 Cl  0  0  0  0  0  0  0  0  0 21  0  0
    1.2298   -0.5484   -2.9713 H   0  0  0  0  0  0  0  0  0 26  0  0
   -0.9159   -1.1885   -2.1568 N   0  0  0  0  0  0  0  0  0  4  0  0
   -2.0515   -1.5584   -1.5927 C   0  0  0  0  0  0  0  0  0  5  0  0
   -3.0874   -2.1445   -2.4849 C   0  0  0  0  0  0  0  0  0  8  0  0
   -2.6769   -2.2755   -3.4864 H   0  0  0  0  0  0  0  0  0  9  0  0
   -3.9474   -1.4781   -2.5397 H   0  0  0  0  0  0  0  0  0 10  0  0
   -3.4311   -3.1074   -2.0986 H   0  0  0  0  0  0  0  0  0 11  0  0
   -2.2582   -1.4060   -0.2281 C   0  0  0  0  0  0  0  0  0  6  0  0
   -3.1892   -1.6909    0.2370 H   0  0  0  0  0  0  0  0  0  7  0  0
   -0.4375   -0.1521    2.3733 H   0  0  0  0  0  0  0  0  0 27  0  0
   -2.2022   -0.0699    2.2450 H   0  0  0  0  0  0  0  0  0 28  0  0
   -1.4298   -1.6235    2.5014 H   0  0  0  0  0  0  0  0  0 29  0  0
  1  2  1  0
  2  3  4  0
  3  4  4  0
  4  5  1  0
  5  6  1  0
  6  7  2  0
  6  8  1  0
  8  9  4  0
  9 10  1  0
  9 11  4  0
 11 12  1  0
 11 13  4  0
 13 14  1  0
 13 15  4  0
 15 16  1  0
 15 17  4  0
 17 18  1  0
  5 19  1  0
  4 20  4  0
 20 21  4  0
 21 22  1  0
 22 23  1  0
 22 24  1  0
 22 25  1  0
 21 26  4  0
 26 27  1  0
  1 28  1  0
  1 29  1  0
  1 30  1  0
 26  2  4  0
 17  8  4  0
M  END
>  <sample_id>  (132)
train::Cc1cc(C)nc(NC(=O)c2ccc(Cl)cc2Cl)n1__gen0002

>  <partition>  (132)
BAT_EXTERNAL_CONFIRM

>  <method>  (132)
BA_seed193

>  <candidate>  (132)
primary

$$$$
train::CC1CN(C(=O)c2ccc3c(c2)OCO3)OC(c2ccccc2)O1__gen0000
     RDKit          3D

 41 44  0  0  0  0  0  0  0  0999 V2000
    1.4674   -4.2616    1.8627 C   0  0  0  0  0  0  0  0  0  0  0  0
    0.8609   -2.8906    1.6202 C   0  0  1  0  0  0  0  0  0  1  0  0
    0.1635   -2.6343    2.4506 H   0  0  0  0  0  0  0  0  0 37  0  0
    1.9288   -1.8058    1.5572 C   0  0  0  0  0  0  0  0  0  2  0  0
    2.3868   -1.6282    2.5294 H   0  0  0  0  0  0  0  0  0 35  0  0
    2.6761   -2.0747    0.8134 H   0  0  0  0  0  0  0  0  0 36  0  0
    1.3036   -0.5633    1.1505 N   0  0  0  0  0  0  0  0  0  3  0  0
    1.4516    0.6195    1.8359 C   0  0  0  0  0  0  0  0  0  4  0  0
    2.1400    0.6473    2.8342 O   0  0  0  0  0  0  0  0  0  5  0  0
    0.8148    1.8068    1.2216 C   0  0  0  0  0  0  0  0  0  6  0  0
   -0.5511    1.8236    0.9324 C   0  0  0  0  0  0  0  0  0  7  0  0
   -1.1581    0.9680    1.1520 H   0  0  0  0  0  0  0  0  0 19  0  0
   -1.1576    2.9550    0.3828 C   0  0  0  0  0  0  0  0  0  8  0  0
   -2.2007    2.9777    0.1601 H   0  0  0  0  0  0  0  0  0 18  0  0
   -0.3412    4.0499    0.1538 C   0  0  0  0  0  0  0  0  0  9  0  0
    1.0136    4.0255    0.4446 C   0  0  0  0  0  0  0  0  0 10  0  0
    1.6146    2.9142    1.0010 C   0  0  0  0  0  0  0  0  0 11  0  0
    2.6628    2.9081    1.2528 H   0  0  0  0  0  0  0  0  0 12  0  0
    1.5637    5.2362    0.1260 O   0  0  0  0  0  0  0  0  0 13  0  0
    0.5238    6.0207   -0.3910 C   0  0  0  0  0  0  0  0  0 14  0  0
    0.7405    6.3186   -1.4336 H   0  0  0  0  0  0  0  0  0 16  0  0
    0.3909    6.9281    0.2256 H   0  0  0  0  0  0  0  0  0 17  0  0
   -0.6782    5.2612   -0.3771 O   0  0  0  0  0  0  0  0  0 15  0  0
    0.5779   -0.7185   -0.0166 O   0  0  0  0  0  0  0  0  0 20  0  0
   -0.4314   -1.6840    0.1025 C   0  0  1  0  0  0  0  0  0 21  0  0
   -1.1843   -1.7138   -1.2056 C   0  0  0  0  0  0  0  0  0 22  0  0
   -0.6641   -2.4149   -2.2706 C   0  0  0  0  0  0  0  0  0 23  0  0
    0.2854   -2.9387   -2.1477 H   0  0  0  0  0  0  0  0  0 32  0  0
   -1.3314   -2.4333   -3.4759 C   0  0  0  0  0  0  0  0  0 24  0  0
   -0.9208   -2.9907   -4.3143 H   0  0  0  0  0  0  0  0  0 31  0  0
   -2.5309   -1.7479   -3.6223 C   0  0  0  0  0  0  0  0  0 25  0  0
   -3.0564   -1.7729   -4.5521 H   0  0  0  0  0  0  0  0  0 30  0  0
   -3.0587   -1.0537   -2.5486 C   0  0  0  0  0  0  0  0  0 26  0  0
   -3.9882   -0.5232   -2.6521 H   0  0  0  0  0  0  0  0  0 29  0  0
   -2.3742   -1.0329   -1.3427 C   0  0  0  0  0  0  0  0  0 27  0  0
   -2.7865   -0.4729   -0.4979 H   0  0  0  0  0  0  0  0  0 28  0  0
   -1.1403   -1.3934    0.9189 H   0  0  0  0  0  0  0  0  0 34  0  0
    0.1483   -2.9137    0.4038 O   0  0  0  0  0  0  0  0  0 33  0  0
    2.1440   -4.5108    1.0386 H   0  0  0  0  0  0  0  0  0 38  0  0
    2.0142   -4.2721    2.8003 H   0  0  0  0  0  0  0  0  0 39  0  0
    0.6810   -5.0146    1.8772 H   0  0  0  0  0  0  0  0  0 40  0  0
  1  2  1  0
  2  3  1  1
  2  4  1  0
  4  5  1  0
  4  6  1  0
  4  7  1  0
  7  8  1  0
  8  9  2  0
  8 10  1  0
 10 11  4  0
 11 12  1  0
 11 13  4  0
 13 14  1  0
 13 15  4  0
 15 16  4  0
 16 17  4  0
 17 18  1  0
 16 19  1  0
 19 20  1  0
 20 21  1  0
 20 22  1  0
 20 23  1  0
  7 24  1  0
 24 25  1  0
 25 26  1  0
 26 27  4  0
 27 28  1  0
 27 29  4  0
 29 30  1  0
 29 31  4  0
 31 32  1  0
 31 33  4  0
 33 34  1  0
 33 35  4  0
 35 36  1  0
 25 37  1  1
 25 38  1  0
  1 39  1  0
  1 40  1  0
  1 41  1  0
 38  2  1  0
 17 10  4  0
 35 26  4  0
 23 15  1  0
M  END
>  <sample_id>  (133)
train::CC1CN(C(=O)c2ccc3c(c2)OCO3)OC(c2ccccc2)O1__gen0000

>  <partition>  (133)
BAT_EXTERNAL_CONFIRM

>  <method>  (133)
BA_seed193

>  <candidate>  (133)
primary

$$$$
train::CC1CN(C(=O)c2ccc3c(c2)OCO3)OC(c2ccccc2)O1__gen0001
     RDKit          3D

 41 44  0  0  0  0  0  0  0  0999 V2000
   -0.0235   -4.2670   -1.9426 C   0  0  0  0  0  0  0  0  0  0  0  0
   -0.2642   -2.8633   -1.4399 C   0  0  1  0  0  0  0  0  0  1  0  0
   -0.6118   -2.1961   -2.2584 H   0  0  0  0  0  0  0  0  0 37  0  0
   -1.3101   -2.8393   -0.3132 C   0  0  0  0  0  0  0  0  0  2  0  0
   -2.3079   -3.0741   -0.7062 H   0  0  0  0  0  0  0  0  0 35  0  0
   -1.0336   -3.5260    0.4695 H   0  0  0  0  0  0  0  0  0 36  0  0
   -1.3574   -1.5182    0.2253 N   0  0  0  0  0  0  0  0  0  3  0  0
   -2.3049   -0.6140   -0.1786 C   0  0  0  0  0  0  0  0  0  4  0  0
   -3.2861   -0.9934   -0.7966 O   0  0  0  0  0  0  0  0  0  5  0  0
   -2.1194    0.8067    0.2267 C   0  0  0  0  0  0  0  0  0  6  0  0
   -1.5527    1.1792    1.4408 C   0  0  0  0  0  0  0  0  0  7  0  0
   -1.2124    0.4234    2.1227 H   0  0  0  0  0  0  0  0  0 19  0  0
   -1.4129    2.5122    1.7934 C   0  0  0  0  0  0  0  0  0  8  0  0
   -0.9789    2.8133    2.7337 H   0  0  0  0  0  0  0  0  0 18  0  0
   -1.8895    3.4516    0.9097 C   0  0  0  0  0  0  0  0  0  9  0  0
   -2.4723    3.0958   -0.3109 C   0  0  0  0  0  0  0  0  0 10  0  0
   -2.5980    1.7644   -0.6594 C   0  0  0  0  0  0  0  0  0 11  0  0
   -3.0789    1.4735   -1.5903 H   0  0  0  0  0  0  0  0  0 12  0  0
   -2.8465    4.2110   -0.9891 O   0  0  0  0  0  0  0  0  0 13  0  0
   -2.4970    5.3067   -0.1632 C   0  0  0  0  0  0  0  0  0 14  0  0
   -1.7769    5.9521   -0.7133 H   0  0  0  0  0  0  0  0  0 16  0  0
   -3.3876    5.8770    0.0900 H   0  0  0  0  0  0  0  0  0 17  0  0
   -1.8712    4.8131    1.0053 O   0  0  0  0  0  0  0  0  0 15  0  0
   -0.1111   -1.1022    0.6881 O   0  0  0  0  0  0  0  0  0 20  0  0
    0.8432   -1.0671   -0.3504 C   0  0  1  0  0  0  0  0  0 21  0  0
    2.1825   -0.6840    0.2106 C   0  0  0  0  0  0  0  0  0 22  0  0
    2.8745    0.4025   -0.3053 C   0  0  0  0  0  0  0  0  0 23  0  0
    2.4469    0.9786   -1.1082 H   0  0  0  0  0  0  0  0  0 32  0  0
    4.1194    0.7365    0.2134 C   0  0  0  0  0  0  0  0  0 24  0  0
    4.6665    1.5690   -0.1994 H   0  0  0  0  0  0  0  0  0 31  0  0
    4.6575   -0.0121    1.2470 C   0  0  0  0  0  0  0  0  0 25  0  0
    5.6327    0.2480    1.6433 H   0  0  0  0  0  0  0  0  0 30  0  0
    3.9694   -1.0849    1.7699 C   0  0  0  0  0  0  0  0  0 26  0  0
    4.3870   -1.6669    2.5754 H   0  0  0  0  0  0  0  0  0 29  0  0
    2.7297   -1.4228    1.2488 C   0  0  0  0  0  0  0  0  0 27  0  0
    2.1679   -2.2501    1.6610 H   0  0  0  0  0  0  0  0  0 28  0  0
    0.5387   -0.2781   -1.0686 H   0  0  0  0  0  0  0  0  0 34  0  0
    0.9531   -2.3479   -0.9385 O   0  0  0  0  0  0  0  0  0 33  0  0
   -0.9418   -4.6662   -2.3633 H   0  0  0  0  0  0  0  0  0 38  0  0
    0.7386   -4.2460   -2.7331 H   0  0  0  0  0  0  0  0  0 39  0  0
    0.3392   -4.8949   -1.1463 H   0  0  0  0  0  0  0  0  0 40  0  0
  1  2  1  0
  2  3  1  6
  2  4  1  0
  4  5  1  0
  4  6  1  0
  4  7  1  0
  7  8  1  0
  8  9  2  0
  8 10  1  0
 10 11  4  0
 11 12  1  0
 11 13  4  0
 13 14  1  0
 13 15  4  0
 15 16  4  0
 16 17  4  0
 17 18  1  0
 16 19  1  0
 19 20  1  0
 20 21  1  0
 20 22  1  0
 20 23  1  0
  7 24  1  0
 24 25  1  0
 25 26  1  0
 26 27  4  0
 27 28  1  0
 27 29  4  0
 29 30  1  0
 29 31  4  0
 31 32  1  0
 31 33  4  0
 33 34  1  0
 33 35  4  0
 35 36  1  0
 25 37  1  6
 25 38  1  0
  1 39  1  0
  1 40  1  0
  1 41  1  0
 38  2  1  0
 17 10  4  0
 35 26  4  0
 23 15  1  0
M  END
>  <sample_id>  (134)
train::CC1CN(C(=O)c2ccc3c(c2)OCO3)OC(c2ccccc2)O1__gen0001

>  <partition>  (134)
BAT_EXTERNAL_CONFIRM

>  <method>  (134)
BA_seed193

>  <candidate>  (134)
primary

$$$$
train::CC1CN(C(=O)c2ccc3c(c2)OCO3)OC(c2ccccc2)O1__gen0002
     RDKit          3D

 41 44  0  0  0  0  0  0  0  0999 V2000
    3.2275   -0.4363   -2.6944 C   0  0  0  0  0  0  0  0  0  0  0  0
    1.9466    0.3751   -2.8706 C   0  0  1  0  0  0  0  0  0  1  0  0
    2.0802    1.1693   -3.6229 H   0  0  0  0  0  0  0  0  0 37  0  0
    0.7471   -0.4995   -3.3359 C   0  0  0  0  0  0  0  0  0  2  0  0
    0.1153    0.0601   -4.0419 H   0  0  0  0  0  0  0  0  0 35  0  0
    1.0752   -1.4183   -3.7624 H   0  0  0  0  0  0  0  0  0 36  0  0
   -0.0658   -0.8008   -2.1876 N   0  0  0  0  0  0  0  0  0  3  0  0
    0.2734   -1.9049   -1.4304 C   0  0  0  0  0  0  0  0  0  4  0  0
    1.0085   -2.7551   -1.8504 O   0  0  0  0  0  0  0  0  0  5  0  0
   -0.3630   -1.9815   -0.0734 C   0  0  0  0  0  0  0  0  0  6  0  0
    0.3639   -2.6003    0.9288 C   0  0  0  0  0  0  0  0  0  7  0  0
    1.3276   -3.0252    0.6713 H   0  0  0  0  0  0  0  0  0 19  0  0
   -0.1224   -2.7157    2.2221 C   0  0  0  0  0  0  0  0  0  8  0  0
    0.4458   -3.1934    3.0054 H   0  0  0  0  0  0  0  0  0 18  0  0
   -1.3621   -2.1712    2.4732 C   0  0  0  0  0  0  0  0  0  9  0  0
   -2.1132   -1.5618    1.4661 C   0  0  0  0  0  0  0  0  0 10  0  0
   -1.6466   -1.4621    0.1761 C   0  0  0  0  0  0  0  0  0 11  0  0
   -2.2370   -1.0097   -0.5975 H   0  0  0  0  0  0  0  0  0 12  0  0
   -3.3054   -1.1467    1.9767 O   0  0  0  0  0  0  0  0  0 13  0  0
   -3.2840   -1.5072    3.3492 C   0  0  0  0  0  0  0  0  0 14  0  0
   -3.3891   -0.5871    3.9645 H   0  0  0  0  0  0  0  0  0 16  0  0
   -4.1272   -2.1782    3.5726 H   0  0  0  0  0  0  0  0  0 17  0  0
   -2.0573   -2.1381    3.6506 O   0  0  0  0  0  0  0  0  0 15  0  0
   -0.5855    0.3284   -1.5598 O   0  0  0  0  0  0  0  0  0 20  0  0
    0.3507    1.3933   -1.4822 C   0  0  1  0  0  0  0  0  0 21  0  0
    0.1578    2.0634   -0.1530 C   0  0  0  0  0  0  0  0  0 22  0  0
   -0.3112    3.3790   -0.1090 C   0  0  0  0  0  0  0  0  0 23  0  0
   -0.5279    3.9020   -1.0215 H   0  0  0  0  0  0  0  0  0 32  0  0
   -0.4924    3.9869    1.1219 C   0  0  0  0  0  0  0  0  0 24  0  0
   -0.8432    5.0092    1.1758 H   0  0  0  0  0  0  0  0  0 31  0  0
   -0.2157    3.3028    2.2960 C   0  0  0  0  0  0  0  0  0 25  0  0
   -0.3653    3.7822    3.2492 H   0  0  0  0  0  0  0  0  0 30  0  0
    0.2499    1.9989    2.2389 C   0  0  0  0  0  0  0  0  0 26  0  0
    0.4557    1.4530    3.1458 H   0  0  0  0  0  0  0  0  0 29  0  0
    0.4195    1.3735    1.0147 C   0  0  0  0  0  0  0  0  0 27  0  0
    0.7785    0.3581    0.9566 H   0  0  0  0  0  0  0  0  0 28  0  0
    0.1075    2.1139   -2.2964 H   0  0  0  0  0  0  0  0  0 34  0  0
    1.6540    0.9437   -1.6101 O   0  0  0  0  0  0  0  0  0 33  0  0
    4.0382    0.1991   -2.3226 H   0  0  0  0  0  0  0  0  0 38  0  0
    3.0513   -1.2366   -1.9857 H   0  0  0  0  0  0  0  0  0 39  0  0
    3.5403   -0.8619   -3.6477 H   0  0  0  0  0  0  0  0  0 40  0  0
  1  2  1  0
  2  3  1  6
  2  4  1  0
  4  5  1  0
  4  6  1  0
  4  7  1  0
  7  8  1  0
  8  9  2  0
  8 10  1  0
 10 11  4  0
 11 12  1  0
 11 13  4  0
 13 14  1  0
 13 15  4  0
 15 16  4  0
 16 17  4  0
 17 18  1  0
 16 19  1  0
 19 20  1  0
 20 21  1  0
 20 22  1  0
 20 23  1  0
  7 24  1  0
 24 25  1  0
 25 26  1  0
 26 27  4  0
 27 28  1  0
 27 29  4  0
 29 30  1  0
 29 31  4  0
 31 32  1  0
 31 33  4  0
 33 34  1  0
 33 35  4  0
 35 36  1  0
 25 37  1  6
 25 38  1  0
  1 39  1  0
  1 40  1  0
  1 41  1  0
 38  2  1  0
 17 10  4  0
 35 26  4  0
 23 15  1  0
M  END
>  <sample_id>  (135)
train::CC1CN(C(=O)c2ccc3c(c2)OCO3)OC(c2ccccc2)O1__gen0002

>  <partition>  (135)
BAT_EXTERNAL_CONFIRM

>  <method>  (135)
BA_seed193

>  <candidate>  (135)
primary

$$$$
train::COc1ccccc1NS(=O)(=O)c1ccc(NC(=O)N2CCCCC2)cc1__gen0000
     RDKit          3D

 50 52  0  0  0  0  0  0  0  0999 V2000
   -4.3448    3.3956   -5.6779 C   0  0  0  0  0  0  0  0  0  0  0  0
   -3.4974    3.7169   -6.3060 H   0  0  0  0  0  0  0  0  0  1  0  0
   -4.9670    2.7111   -6.2508 H   0  0  0  0  0  0  0  0  0  2  0  0
   -4.9362    4.2776   -5.4103 H   0  0  0  0  0  0  0  0  0  3  0  0
   -3.9064    2.6881   -4.5690 O   0  0  0  0  0  0  0  0  0  4  0  0
   -3.1122    3.3164   -3.6477 C   0  0  0  0  0  0  0  0  0  5  0  0
   -2.6462    4.6258   -3.7518 C   0  0  0  0  0  0  0  0  0  6  0  0
   -2.9322    5.2343   -4.5979 H   0  0  0  0  0  0  0  0  0 49  0  0
   -1.8564    5.1712   -2.7603 C   0  0  0  0  0  0  0  0  0  7  0  0
   -1.5045    6.1881   -2.8606 H   0  0  0  0  0  0  0  0  0 48  0  0
   -1.4668    4.4030   -1.6791 C   0  0  0  0  0  0  0  0  0  8  0  0
   -0.8494    4.8278   -0.9014 H   0  0  0  0  0  0  0  0  0 47  0  0
   -1.9287    3.1025   -1.5505 C   0  0  0  0  0  0  0  0  0  9  0  0
   -1.6393    2.4895   -0.7091 H   0  0  0  0  0  0  0  0  0 46  0  0
   -2.7408    2.5498   -2.5316 C   0  0  0  0  0  0  0  0  0 10  0  0
   -3.1663    1.2152   -2.4554 N   0  0  0  0  0  0  0  0  0 11  0  0
   -3.6435    0.5449   -0.9895 S   0  0  1  0  0  6  0  0  0 12  0  0
   -4.1578    1.5271   -0.0854 O   0  0  0  0  0  0  0  0  0 13  0  0
   -4.4713   -0.5689   -1.3523 O   0  0  0  0  0  0  0  0  0 14  0  0
   -2.0840   -0.0651   -0.3652 C   0  0  0  0  0  0  0  0  0 15  0  0
   -1.3708   -0.9679   -1.1375 C   0  0  0  0  0  0  0  0  0 16  0  0
   -1.7681   -1.2559   -2.0920 H   0  0  0  0  0  0  0  0  0 44  0  0
   -0.1719   -1.4632   -0.6616 C   0  0  0  0  0  0  0  0  0 17  0  0
    0.3938   -2.1528   -1.2696 H   0  0  0  0  0  0  0  0  0 43  0  0
    0.3278   -1.0822    0.5886 C   0  0  0  0  0  0  0  0  0 18  0  0
    1.5092   -1.6236    1.0174 N   0  0  0  0  0  0  0  0  0 23  0  0
    2.3002   -1.2664    2.1195 C   0  0  0  0  0  0  0  0  0 24  0  0
    2.0214   -0.3101    2.8190 O   0  0  0  0  0  0  0  0  0 25  0  0
    3.3899   -2.0310    2.3049 N   0  0  0  0  0  0  0  0  0 26  0  0
    3.6235   -3.3902    1.8460 C   0  0  0  0  0  0  0  0  0 27  0  0
    2.9932   -3.6301    0.9966 H   0  0  0  0  0  0  0  0  0 28  0  0
    4.6720   -3.4493    1.5302 H   0  0  0  0  0  0  0  0  0 41  0  0
    3.3590   -4.3869    2.9806 C   0  0  0  0  0  0  0  0  0 29  0  0
    3.5548   -5.3882    2.6185 H   0  0  0  0  0  0  0  0  0 39  0  0
    2.3098   -4.3215    3.2660 H   0  0  0  0  0  0  0  0  0 40  0  0
    4.2442   -4.0623    4.1804 C   0  0  0  0  0  0  0  0  0 30  0  0
    5.2966   -4.1981    3.9082 H   0  0  0  0  0  0  0  0  0 37  0  0
    4.0324   -4.7669    4.9951 H   0  0  0  0  0  0  0  0  0 38  0  0
    4.0237   -2.6129    4.6181 C   0  0  0  0  0  0  0  0  0 31  0  0
    4.7015   -2.3503    5.4278 H   0  0  0  0  0  0  0  0  0 32  0  0
    2.9962   -2.4938    4.9723 H   0  0  0  0  0  0  0  0  0 36  0  0
    4.2525   -1.6883    3.4267 C   0  0  0  0  0  0  0  0  0 33  0  0
    4.0382   -0.6532    3.7117 H   0  0  0  0  0  0  0  0  0 34  0  0
    5.2927   -1.7447    3.0917 H   0  0  0  0  0  0  0  0  0 35  0  0
    1.9351   -2.2501    0.3471 H   0  0  0  0  0  0  0  0  0 42  0  0
   -0.4276   -0.1864    1.3634 C   0  0  0  0  0  0  0  0  0 19  0  0
   -0.0587    0.1141    2.3333 H   0  0  0  0  0  0  0  0  0 22  0  0
   -1.6273    0.3129    0.8827 C   0  0  0  0  0  0  0  0  0 20  0  0
   -2.2143    0.9924    1.4784 H   0  0  0  0  0  0  0  0  0 21  0  0
   -3.7781    0.9559   -3.2119 H   0  0  0  0  0  0  0  0  0 45  0  0
  1  2  1  0
  1  3  1  0
  1  4  1  0
  1  5  1  0
  5  6  1  0
  6  7  4  0
  7  8  1  0
  7  9  4  0
  9 10  1  0
  9 11  4  0
 11 12  1  0
 11 13  4  0
 13 14  1  0
 13 15  4  0
 15 16  1  0
 17 16  1  6
 17 18  2  0
 17 19  2  0
 17 20  1  0
 20 21  4  0
 21 22  1  0
 21 23  4  0
 23 24  1  0
 23 25  4  0
 25 26  1  0
 26 27  1  0
 27 28  2  0
 27 29  1  0
 29 30  1  0
 30 31  1  0
 30 32  1  0
 30 33  1  0
 33 34  1  0
 33 35  1  0
 33 36  1  0
 36 37  1  0
 36 38  1  0
 36 39  1  0
 39 40  1  0
 39 41  1  0
 39 42  1  0
 42 43  1  0
 42 44  1  0
 26 45  1  0
 25 46  4  0
 46 47  1  0
 46 48  4  0
 48 49  1  0
 16 50  1  0
 15  6  4  0
 48 20  4  0
 42 29  1  0
M  END
>  <sample_id>  (136)
train::COc1ccccc1NS(=O)(=O)c1ccc(NC(=O)N2CCCCC2)cc1__gen0000

>  <partition>  (136)
BAT_EXTERNAL_CONFIRM

>  <method>  (136)
BA_seed193

>  <candidate>  (136)
primary

$$$$
train::COc1ccccc1NS(=O)(=O)c1ccc(NC(=O)N2CCCCC2)cc1__gen0001
     RDKit          3D

 50 52  0  0  0  0  0  0  0  0999 V2000
    0.7622   -0.6778    3.8307 C   0  0  0  0  0  0  0  0  0  0  0  0
    0.0927   -1.4011    3.3708 H   0  0  0  0  0  0  0  0  0  1  0  0
    0.3830   -0.4335    4.8224 H   0  0  0  0  0  0  0  0  0  2  0  0
    1.7635   -1.1278    3.9127 H   0  0  0  0  0  0  0  0  0  3  0  0
    0.7717    0.4410    2.9933 O   0  0  0  0  0  0  0  0  0  4  0  0
    1.3153    1.5886    3.4665 C   0  0  0  0  0  0  0  0  0  5  0  0
    2.2700    1.6615    4.4797 C   0  0  0  0  0  0  0  0  0  6  0  0
    2.6210    0.7632    4.9487 H   0  0  0  0  0  0  0  0  0 49  0  0
    2.8050    2.8897    4.8467 C   0  0  0  0  0  0  0  0  0  7  0  0
    3.5505    2.9228    5.6149 H   0  0  0  0  0  0  0  0  0 48  0  0
    2.3825    4.0583    4.2353 C   0  0  0  0  0  0  0  0  0  8  0  0
    2.8018    5.0032    4.5255 H   0  0  0  0  0  0  0  0  0 47  0  0
    1.4041    3.9920    3.2595 C   0  0  0  0  0  0  0  0  0  9  0  0
    1.0404    4.8924    2.7890 H   0  0  0  0  0  0  0  0  0 46  0  0
    0.8502    2.7749    2.8852 C   0  0  0  0  0  0  0  0  0 10  0  0
   -0.1354    2.6792    1.8986 N   0  0  0  0  0  0  0  0  0 11  0  0
   -1.5457    1.8052    2.2196 S   0  0  1  0  0  6  0  0  0 12  0  0
   -1.6420    1.3999    3.5937 O   0  0  0  0  0  0  0  0  0 13  0  0
   -2.6128    2.6229    1.7054 O   0  0  0  0  0  0  0  0  0 14  0  0
   -1.4469    0.3661    1.1808 C   0  0  0  0  0  0  0  0  0 15  0  0
   -2.5080   -0.5249    1.2432 C   0  0  0  0  0  0  0  0  0 16  0  0
   -3.3212   -0.3193    1.9230 H   0  0  0  0  0  0  0  0  0 44  0  0
   -2.5064   -1.6485    0.4427 C   0  0  0  0  0  0  0  0  0 17  0  0
   -3.3387   -2.3380    0.4831 H   0  0  0  0  0  0  0  0  0 43  0  0
   -1.4523   -1.8892   -0.4421 C   0  0  0  0  0  0  0  0  0 18  0  0
   -1.4977   -2.9939   -1.2675 N   0  0  0  0  0  0  0  0  0 23  0  0
   -0.6547   -3.3069   -2.3461 C   0  0  0  0  0  0  0  0  0 24  0  0
   -0.1974   -4.4245   -2.4647 O   0  0  0  0  0  0  0  0  0 25  0  0
   -0.4674   -2.3208   -3.2611 N   0  0  0  0  0  0  0  0  0 26  0  0
   -1.3339   -1.1789   -3.4811 C   0  0  0  0  0  0  0  0  0 27  0  0
   -1.9708   -1.3842   -4.3484 H   0  0  0  0  0  0  0  0  0 28  0  0
   -1.9917   -1.0378   -2.6206 H   0  0  0  0  0  0  0  0  0 41  0  0
   -0.5292    0.0810   -3.7489 C   0  0  0  0  0  0  0  0  0 29  0  0
   -1.1991    0.9028   -3.9604 H   0  0  0  0  0  0  0  0  0 39  0  0
    0.0552    0.3397   -2.8641 H   0  0  0  0  0  0  0  0  0 40  0  0
    0.4232   -0.1359   -4.9198 C   0  0  0  0  0  0  0  0  0 30  0  0
   -0.1748   -0.3035   -5.8354 H   0  0  0  0  0  0  0  0  0 37  0  0
    1.0525    0.7278   -5.0948 H   0  0  0  0  0  0  0  0  0 38  0  0
    1.2872   -1.3729   -4.6426 C   0  0  0  0  0  0  0  0  0 31  0  0
    1.9343   -1.5709   -5.4970 H   0  0  0  0  0  0  0  0  0 32  0  0
    1.9192   -1.1899   -3.7771 H   0  0  0  0  0  0  0  0  0 36  0  0
    0.4057   -2.5851   -4.3835 C   0  0  0  0  0  0  0  0  0 33  0  0
    1.0144   -3.4554   -4.1254 H   0  0  0  0  0  0  0  0  0 34  0  0
   -0.1830   -2.8113   -5.2641 H   0  0  0  0  0  0  0  0  0 35  0  0
   -1.9607   -3.8135   -0.8884 H   0  0  0  0  0  0  0  0  0 42  0  0
   -0.3813   -0.9868   -0.4920 C   0  0  0  0  0  0  0  0  0 19  0  0
    0.4740   -1.1979   -1.1131 H   0  0  0  0  0  0  0  0  0 22  0  0
   -0.3831    0.1254    0.3377 C   0  0  0  0  0  0  0  0  0 20  0  0
    0.4473    0.8160    0.3278 H   0  0  0  0  0  0  0  0  0 21  0  0
   -0.3924    3.5768    1.5014 H   0  0  0  0  0  0  0  0  0 45  0  0
  1  2  1  0
  1  3  1  0
  1  4  1  0
  1  5  1  0
  5  6  1  0
  6  7  4  0
  7  8  1  0
  7  9  4  0
  9 10  1  0
  9 11  4  0
 11 12  1  0
 11 13  4  0
 13 14  1  0
 13 15  4  0
 15 16  1  0
 17 16  1  1
 17 18  2  0
 17 19  2  0
 17 20  1  0
 20 21  4  0
 21 22  1  0
 21 23  4  0
 23 24  1  0
 23 25  4  0
 25 26  1  0
 26 27  1  0
 27 28  2  0
 27 29  1  0
 29 30  1  0
 30 31  1  0
 30 32  1  0
 30 33  1  0
 33 34  1  0
 33 35  1  0
 33 36  1  0
 36 37  1  0
 36 38  1  0
 36 39  1  0
 39 40  1  0
 39 41  1  0
 39 42  1  0
 42 43  1  0
 42 44  1  0
 26 45  1  0
 25 46  4  0
 46 47  1  0
 46 48  4  0
 48 49  1  0
 16 50  1  0
 15  6  4  0
 48 20  4  0
 42 29  1  0
M  END
>  <sample_id>  (137)
train::COc1ccccc1NS(=O)(=O)c1ccc(NC(=O)N2CCCCC2)cc1__gen0001

>  <partition>  (137)
BAT_EXTERNAL_CONFIRM

>  <method>  (137)
BA_seed193

>  <candidate>  (137)
primary

$$$$
train::COc1ccccc1NS(=O)(=O)c1ccc(NC(=O)N2CCCCC2)cc1__gen0002
     RDKit          3D

 50 52  0  0  0  0  0  0  0  0999 V2000
   -3.4243   -1.1035   -1.2974 C   0  0  0  0  0  0  0  0  0  0  0  0
   -3.3295   -1.4101   -2.3343 H   0  0  0  0  0  0  0  0  0  1  0  0
   -2.9584   -0.1360   -1.1447 H   0  0  0  0  0  0  0  0  0  2  0  0
   -4.4927   -1.0383   -1.0363 H   0  0  0  0  0  0  0  0  0  3  0  0
   -2.7879   -2.1118   -0.5505 O   0  0  0  0  0  0  0  0  0  4  0  0
   -2.6641   -1.9385    0.8012 C   0  0  0  0  0  0  0  0  0  5  0  0
   -3.1519   -0.8615    1.5161 C   0  0  0  0  0  0  0  0  0  6  0  0
   -3.6972   -0.0797    1.0215 H   0  0  0  0  0  0  0  0  0 49  0  0
   -2.9309   -0.7764    2.8899 C   0  0  0  0  0  0  0  0  0  7  0  0
   -3.3169    0.0699    3.4204 H   0  0  0  0  0  0  0  0  0 48  0  0
   -2.2404   -1.7739    3.5387 C   0  0  0  0  0  0  0  0  0  8  0  0
   -2.0498   -1.6919    4.6026 H   0  0  0  0  0  0  0  0  0 47  0  0
   -1.7486   -2.8591    2.8477 C   0  0  0  0  0  0  0  0  0  9  0  0
   -1.1835   -3.6401    3.3286 H   0  0  0  0  0  0  0  0  0 46  0  0
   -1.9749   -2.9573    1.4860 C   0  0  0  0  0  0  0  0  0 10  0  0
   -1.4710   -4.0730    0.7849 N   0  0  0  0  0  0  0  0  0 11  0  0
    0.2017   -4.0383    0.4951 S   0  0  1  0  0  6  0  0  0 12  0  0
    0.8714   -3.9531    1.7439 O   0  0  0  0  0  0  0  0  0 13  0  0
    0.4687   -5.1367   -0.3870 O   0  0  0  0  0  0  0  0  0 14  0  0
    0.3472   -2.4853   -0.3850 C   0  0  0  0  0  0  0  0  0 15  0  0
    0.4841   -1.3167    0.3449 C   0  0  0  0  0  0  0  0  0 16  0  0
    0.6350   -1.3868    1.4156 H   0  0  0  0  0  0  0  0  0 44  0  0
    0.4522   -0.1064   -0.2994 C   0  0  0  0  0  0  0  0  0 17  0  0
    0.5251    0.8159    0.2641 H   0  0  0  0  0  0  0  0  0 43  0  0
    0.2718   -0.0536   -1.6847 C   0  0  0  0  0  0  0  0  0 18  0  0
    0.1907    1.1511   -2.3668 N   0  0  0  0  0  0  0  0  0 23  0  0
    0.2894    2.4480   -1.8288 C   0  0  0  0  0  0  0  0  0 24  0  0
   -0.6088    3.2366   -1.9913 O   0  0  0  0  0  0  0  0  0 25  0  0
    1.4538    2.7514   -1.2062 N   0  0  0  0  0  0  0  0  0 26  0  0
    2.6997    1.9985   -1.3526 C   0  0  0  0  0  0  0  0  0 27  0  0
    2.4938    0.9255   -1.2255 H   0  0  0  0  0  0  0  0  0 28  0  0
    3.1049    2.1541   -2.3531 H   0  0  0  0  0  0  0  0  0 41  0  0
    3.6965    2.4360   -0.2745 C   0  0  0  0  0  0  0  0  0 29  0  0
    4.2331    3.3442   -0.6041 H   0  0  0  0  0  0  0  0  0 39  0  0
    4.4373    1.6620   -0.1340 H   0  0  0  0  0  0  0  0  0 40  0  0
    2.9362    2.7147    1.0128 C   0  0  0  0  0  0  0  0  0 30  0  0
    3.6511    2.9017    1.8389 H   0  0  0  0  0  0  0  0  0 37  0  0
    2.3526    1.8464    1.2796 H   0  0  0  0  0  0  0  0  0 38  0  0
    2.0386    3.9350    0.8425 C   0  0  0  0  0  0  0  0  0 31  0  0
    2.5528    4.8462    1.1500 H   0  0  0  0  0  0  0  0  0 32  0  0
    1.1643    3.8142    1.4920 H   0  0  0  0  0  0  0  0  0 36  0  0
    1.5947    4.0547   -0.6153 C   0  0  0  0  0  0  0  0  0 33  0  0
    2.3378    4.6520   -1.1875 H   0  0  0  0  0  0  0  0  0 34  0  0
    0.6299    4.5798   -0.6929 H   0  0  0  0  0  0  0  0  0 35  0  0
   -0.3942    1.1320   -3.1957 H   0  0  0  0  0  0  0  0  0 42  0  0
    0.1068   -1.2465   -2.4057 C   0  0  0  0  0  0  0  0  0 19  0  0
   -0.0463   -1.2039   -3.4654 H   0  0  0  0  0  0  0  0  0 22  0  0
    0.1536   -2.4496   -1.7374 C   0  0  0  0  0  0  0  0  0 20  0  0
    0.0495   -3.4023   -2.2726 H   0  0  0  0  0  0  0  0  0 21  0  0
   -1.9526   -4.2396   -0.0885 H   0  0  0  0  0  0  0  0  0 45  0  0
  1  2  1  0
  1  3  1  0
  1  4  1  0
  1  5  1  0
  5  6  1  0
  6  7  4  0
  7  8  1  0
  7  9  4  0
  9 10  1  0
  9 11  4  0
 11 12  1  0
 11 13  4  0
 13 14  1  0
 13 15  4  0
 15 16  1  0
 17 16  1  1
 17 18  2  0
 17 19  2  0
 17 20  1  0
 20 21  4  0
 21 22  1  0
 21 23  4  0
 23 24  1  0
 23 25  4  0
 25 26  1  0
 26 27  1  0
 27 28  2  0
 27 29  1  0
 29 30  1  0
 30 31  1  0
 30 32  1  0
 30 33  1  0
 33 34  1  0
 33 35  1  0
 33 36  1  0
 36 37  1  0
 36 38  1  0
 36 39  1  0
 39 40  1  0
 39 41  1  0
 39 42  1  0
 42 43  1  0
 42 44  1  0
 26 45  1  0
 25 46  4  0
 46 47  1  0
 46 48  4  0
 48 49  1  0
 16 50  1  0
 15  6  4  0
 48 20  4  0
 42 29  1  0
M  END
>  <sample_id>  (138)
train::COc1ccccc1NS(=O)(=O)c1ccc(NC(=O)N2CCCCC2)cc1__gen0002

>  <partition>  (138)
BAT_EXTERNAL_CONFIRM

>  <method>  (138)
BA_seed193

>  <candidate>  (138)
primary

$$$$
train::CC1CC1C(=O)OCC(=O)NCc1ccc(Cl)cc1Cl__gen0000
     RDKit          3D

 35 36  0  0  0  0  0  0  0  0999 V2000
    0.4128    0.0840    3.5733 C   0  0  0  0  0  0  0  0  0  0  0  0
   -0.0861    0.7192    2.3103 C   0  0  2  0  0  0  0  0  0  1  0  0
    0.4480    0.4081    1.4118 H   0  0  0  0  0  0  0  0  0 31  0  0
   -0.6288    2.1453    2.3129 C   0  0  0  0  0  0  0  0  0  2  0  0
   -0.6789    2.6654    3.2598 H   0  0  0  0  0  0  0  0  0 29  0  0
   -0.4206    2.7719    1.4587 H   0  0  0  0  0  0  0  0  0 30  0  0
   -1.5544    0.9891    2.0973 C   0  0  1  0  0  0  0  0  0  3  0  0
   -2.1079    0.7765    0.7380 C   0  0  0  0  0  0  0  0  0  4  0  0
   -2.2413    1.6363   -0.0960 O   0  0  0  0  0  0  0  0  0  5  0  0
   -2.4150   -0.4968    0.5445 O   0  0  0  0  0  0  0  0  0  6  0  0
   -2.9596   -0.8833   -0.7247 C   0  0  0  0  0  0  0  0  0  7  0  0
   -3.6488   -0.1098   -1.0883 H   0  0  0  0  0  0  0  0  0  8  0  0
   -3.5000   -1.8198   -0.5315 H   0  0  0  0  0  0  0  0  0  9  0  0
   -1.8481   -1.1177   -1.7535 C   0  0  0  0  0  0  0  0  0 10  0  0
   -1.5496   -2.2264   -2.1554 O   0  0  0  0  0  0  0  0  0 11  0  0
   -1.2696    0.0136   -2.1810 N   0  0  0  0  0  0  0  0  0 12  0  0
   -1.5214    0.8933   -1.7387 H   0  0  0  0  0  0  0  0  0 13  0  0
   -0.0652   -0.0257   -2.9751 C   0  0  0  0  0  0  0  0  0 14  0  0
    1.1340   -0.3125   -2.1081 C   0  0  0  0  0  0  0  0  0 15  0  0
    1.7318   -1.5722   -2.1405 C   0  0  0  0  0  0  0  0  0 16  0  0
    1.3441   -2.3162   -2.8160 H   0  0  0  0  0  0  0  0  0 25  0  0
    2.7852   -1.8856   -1.3017 C   0  0  0  0  0  0  0  0  0 17  0  0
    3.2346   -2.8724   -1.3307 H   0  0  0  0  0  0  0  0  0 24  0  0
    3.2654   -0.9329   -0.4157 C   0  0  0  0  0  0  0  0  0 18  0  0
    4.5742   -1.3193    0.6444 Cl  0  0  0  0  0  0  0  0  0 23  0  0
    2.6883    0.3197   -0.3635 C   0  0  0  0  0  0  0  0  0 19  0  0
    3.0556    1.0649    0.3322 H   0  0  0  0  0  0  0  0  0 22  0  0
    1.6312    0.6132   -1.2077 C   0  0  0  0  0  0  0  0  0 20  0  0
    0.9292    2.1956   -1.1125 Cl  0  0  0  0  0  0  0  0  0 21  0  0
    0.0552    0.9441   -3.4915 H   0  0  0  0  0  0  0  0  0 26  0  0
   -0.1705   -0.8138   -3.7169 H   0  0  0  0  0  0  0  0  0 27  0  0
   -2.2332    0.7025    2.9106 H   0  0  0  0  0  0  0  0  0 28  0  0
    0.2262   -0.9981    3.5321 H   0  0  0  0  0  0  0  0  0 32  0  0
    1.4758    0.2707    3.6778 H   0  0  0  0  0  0  0  0  0 33  0  0
   -0.0926    0.4892    4.4452 H   0  0  0  0  0  0  0  0  0 34  0  0
  1  2  1  0
  2  3  1  6
  2  4  1  0
  4  5  1  0
  4  6  1  0
  4  7  1  0
  7  8  1  0
  8  9  2  0
  8 10  1  0
 10 11  1  0
 11 12  1  0
 11 13  1  0
 11 14  1  0
 14 15  2  0
 14 16  1  0
 16 17  1  0
 16 18  1  0
 18 19  1  0
 19 20  4  0
 20 21  1  0
 20 22  4  0
 22 23  1  0
 22 24  4  0
 24 25  1  0
 24 26  4  0
 26 27  1  0
 26 28  4  0
 28 29  1  0
 18 30  1  0
 18 31  1  0
  7 32  1  1
  1 33  1  0
  1 34  1  0
  1 35  1  0
  7  2  1  0
 28 19  4  0
M  END
>  <sample_id>  (139)
train::CC1CC1C(=O)OCC(=O)NCc1ccc(Cl)cc1Cl__gen0000

>  <partition>  (139)
BAT_EXTERNAL_CONFIRM

>  <method>  (139)
BA_seed193

>  <candidate>  (139)
primary

$$$$
train::CC1CC1C(=O)OCC(=O)NCc1ccc(Cl)cc1Cl__gen0001
     RDKit          3D

 35 36  0  0  0  0  0  0  0  0999 V2000
    4.1816    0.0352   -1.6665 C   0  0  0  0  0  0  0  0  0  0  0  0
    3.0510   -0.1408   -0.6774 C   0  0  2  0  0  0  0  0  0  1  0  0
    3.3531   -0.3125    0.3330 H   0  0  0  0  0  0  0  0  0 31  0  0
    1.7628   -0.7923   -1.1062 C   0  0  0  0  0  0  0  0  0  2  0  0
    1.2435   -1.3982   -0.3837 H   0  0  0  0  0  0  0  0  0 29  0  0
    1.6636   -1.1402   -2.1251 H   0  0  0  0  0  0  0  0  0 30  0  0
    1.8105    0.7029   -0.8752 C   0  0  1  0  0  0  0  0  0  3  0  0
    1.1183    1.2108    0.3304 C   0  0  0  0  0  0  0  0  0  4  0  0
    1.1144    0.6347    1.4040 O   0  0  0  0  0  0  0  0  0  5  0  0
    0.5171    2.3683    0.0963 O   0  0  0  0  0  0  0  0  0  6  0  0
   -0.2098    2.9813    1.1580 C   0  0  0  0  0  0  0  0  0  7  0  0
   -0.3210    4.0347    0.8663 H   0  0  0  0  0  0  0  0  0  8  0  0
    0.3402    2.8922    2.0972 H   0  0  0  0  0  0  0  0  0  9  0  0
   -1.5979    2.3322    1.2774 C   0  0  0  0  0  0  0  0  0 10  0  0
   -2.5989    2.8366    0.8127 O   0  0  0  0  0  0  0  0  0 11  0  0
   -1.5771    1.1564    1.9356 N   0  0  0  0  0  0  0  0  0 12  0  0
   -0.6531    0.7760    2.2020 H   0  0  0  0  0  0  0  0  0 13  0  0
   -2.6651    0.2043    1.8212 C   0  0  0  0  0  0  0  0  0 14  0  0
   -2.2921   -0.8062    0.7755 C   0  0  0  0  0  0  0  0  0 15  0  0
   -2.4092   -0.4565   -0.5785 C   0  0  0  0  0  0  0  0  0 16  0  0
   -2.8526    0.5075   -0.8174 H   0  0  0  0  0  0  0  0  0 25  0  0
   -1.9927   -1.2937   -1.5837 C   0  0  0  0  0  0  0  0  0 17  0  0
   -2.0868   -1.0025   -2.6167 H   0  0  0  0  0  0  0  0  0 24  0  0
   -1.4304   -2.5249   -1.2586 C   0  0  0  0  0  0  0  0  0 18  0  0
   -0.8769   -3.5648   -2.5065 Cl  0  0  0  0  0  0  0  0  0 23  0  0
   -1.2974   -2.8941    0.0700 C   0  0  0  0  0  0  0  0  0 19  0  0
   -0.8386   -3.8463    0.3251 H   0  0  0  0  0  0  0  0  0 22  0  0
   -1.7169   -2.0409    1.0694 C   0  0  0  0  0  0  0  0  0 20  0  0
   -1.4973   -2.5257    2.7097 Cl  0  0  0  0  0  0  0  0  0 21  0  0
   -3.5558    0.7606    1.5337 H   0  0  0  0  0  0  0  0  0 26  0  0
   -2.8266   -0.2720    2.7974 H   0  0  0  0  0  0  0  0  0 27  0  0
    1.7223    1.3490   -1.7346 H   0  0  0  0  0  0  0  0  0 28  0  0
    4.7899    0.8977   -1.3665 H   0  0  0  0  0  0  0  0  0 32  0  0
    3.8194    0.1866   -2.6697 H   0  0  0  0  0  0  0  0  0 33  0  0
    4.8087   -0.8552   -1.6486 H   0  0  0  0  0  0  0  0  0 34  0  0
  1  2  1  0
  2  3  1  1
  2  4  1  0
  4  5  1  0
  4  6  1  0
  4  7  1  0
  7  8  1  0
  8  9  2  0
  8 10  1  0
 10 11  1  0
 11 12  1  0
 11 13  1  0
 11 14  1  0
 14 15  2  0
 14 16  1  0
 16 17  1  0
 16 18  1  0
 18 19  1  0
 19 20  4  0
 20 21  1  0
 20 22  4  0
 22 23  1  0
 22 24  4  0
 24 25  1  0
 24 26  4  0
 26 27  1  0
 26 28  4  0
 28 29  1  0
 18 30  1  0
 18 31  1  0
  7 32  1  6
  1 33  1  0
  1 34  1  0
  1 35  1  0
  7  2  1  0
 28 19  4  0
M  END
>  <sample_id>  (140)
train::CC1CC1C(=O)OCC(=O)NCc1ccc(Cl)cc1Cl__gen0001

>  <partition>  (140)
BAT_EXTERNAL_CONFIRM

>  <method>  (140)
BA_seed193

>  <candidate>  (140)
primary

$$$$
train::CC1CC1C(=O)OCC(=O)NCc1ccc(Cl)cc1Cl__gen0002
     RDKit          3D

 35 36  0  0  0  0  0  0  0  0999 V2000
    0.4901   -0.7105    2.5656 C   0  0  0  0  0  0  0  0  0  0  0  0
    0.3909    0.7699    2.8630 C   0  0  2  0  0  0  0  0  0  1  0  0
    1.3346    1.2556    3.0334 H   0  0  0  0  0  0  0  0  0 31  0  0
   -0.7624    1.2741    3.7172 C   0  0  0  0  0  0  0  0  0  2  0  0
   -1.5293    0.5691    3.9830 H   0  0  0  0  0  0  0  0  0 29  0  0
   -0.5631    2.0544    4.4380 H   0  0  0  0  0  0  0  0  0 30  0  0
   -0.6810    1.6605    2.2471 C   0  0  2  0  0  0  0  0  0  3  0  0
   -1.6651    1.0630    1.3172 C   0  0  0  0  0  0  0  0  0  4  0  0
   -2.2234    0.0073    1.4264 O   0  0  0  0  0  0  0  0  0  5  0  0
   -1.8749    1.9201    0.2980 O   0  0  0  0  0  0  0  0  0  6  0  0
   -2.7219    1.4721   -0.7607 C   0  0  0  0  0  0  0  0  0  7  0  0
   -3.4087    0.7073   -0.3881 H   0  0  0  0  0  0  0  0  0  8  0  0
   -3.2852    2.3323   -1.1274 H   0  0  0  0  0  0  0  0  0  9  0  0
   -1.9215    0.8725   -1.9384 C   0  0  0  0  0  0  0  0  0 10  0  0
   -2.4644    0.2116   -2.7971 O   0  0  0  0  0  0  0  0  0 11  0  0
   -0.6244    1.2043   -1.9290 N   0  0  0  0  0  0  0  0  0 12  0  0
   -0.2644    1.7116   -1.1344 H   0  0  0  0  0  0  0  0  0 13  0  0
    0.3246    0.6108   -2.8364 C   0  0  0  0  0  0  0  0  0 14  0  0
    1.0260   -0.5602   -2.2025 C   0  0  0  0  0  0  0  0  0 15  0  0
    0.7287   -1.8620   -2.5832 C   0  0  0  0  0  0  0  0  0 16  0  0
    0.0034   -2.0124   -3.3725 H   0  0  0  0  0  0  0  0  0 25  0  0
    1.3354   -2.9503   -1.9875 C   0  0  0  0  0  0  0  0  0 17  0  0
    1.0817   -3.9473   -2.3018 H   0  0  0  0  0  0  0  0  0 24  0  0
    2.2477   -2.7390   -0.9675 C   0  0  0  0  0  0  0  0  0 18  0  0
    3.0144   -4.0813   -0.2020 Cl  0  0  0  0  0  0  0  0  0 23  0  0
    2.5489   -1.4568   -0.5417 C   0  0  0  0  0  0  0  0  0 19  0  0
    3.2593   -1.3018    0.2574 H   0  0  0  0  0  0  0  0  0 22  0  0
    1.9276   -0.3816   -1.1552 C   0  0  0  0  0  0  0  0  0 20  0  0
    2.3088    1.2119   -0.5886 Cl  0  0  0  0  0  0  0  0  0 21  0  0
   -0.2301    0.2788   -3.7202 H   0  0  0  0  0  0  0  0  0 26  0  0
    1.0627    1.3675   -3.1338 H   0  0  0  0  0  0  0  0  0 27  0  0
   -0.4138    2.6819    2.0123 H   0  0  0  0  0  0  0  0  0 28  0  0
    1.0906   -0.8919    1.6742 H   0  0  0  0  0  0  0  0  0 32  0  0
    0.9585   -1.2020    3.4202 H   0  0  0  0  0  0  0  0  0 33  0  0
   -0.5002   -1.1394    2.4148 H   0  0  0  0  0  0  0  0  0 34  0  0
  1  2  1  0
  2  3  1  1
  2  4  1  0
  4  5  1  0
  4  6  1  0
  4  7  1  0
  7  8  1  0
  8  9  2  0
  8 10  1  0
 10 11  1  0
 11 12  1  0
 11 13  1  0
 11 14  1  0
 14 15  2  0
 14 16  1  0
 16 17  1  0
 16 18  1  0
 18 19  1  0
 19 20  4  0
 20 21  1  0
 20 22  4  0
 22 23  1  0
 22 24  4  0
 24 25  1  0
 24 26  4  0
 26 27  1  0
 26 28  4  0
 28 29  1  0
 18 30  1  0
 18 31  1  0
  7 32  1  6
  1 33  1  0
  1 34  1  0
  1 35  1  0
  7  2  1  0
 28 19  4  0
M  END
>  <sample_id>  (141)
train::CC1CC1C(=O)OCC(=O)NCc1ccc(Cl)cc1Cl__gen0002

>  <partition>  (141)
BAT_EXTERNAL_CONFIRM

>  <method>  (141)
BA_seed193

>  <candidate>  (141)
primary

$$$$
train::CCOC(=O)N1CCN(C(=O)C(=O)N_N=C_c2ccc(OC)cc2OC)CC1__gen0000
     RDKit          3D

 52 53  0  0  0  0  0  0  0  0999 V2000
   -1.6639    5.9176   -6.8474 C   0  0  0  0  0  0  0  0  0  0  0  0
   -2.5630    4.7922   -6.3824 C   0  0  0  0  0  0  0  0  0  1  0  0
   -3.6006    5.0920   -6.3423 H   0  0  0  0  0  0  0  0  0  2  0  0
   -2.4465    3.9146   -7.0380 H   0  0  0  0  0  0  0  0  0  3  0  0
   -2.2548    4.3839   -5.0305 O   0  0  0  0  0  0  0  0  0  4  0  0
   -1.1982    3.5797   -4.9071 C   0  0  0  0  0  0  0  0  0  5  0  0
   -0.5501    3.1381   -5.8260 O   0  0  0  0  0  0  0  0  0  6  0  0
   -0.9224    3.3097   -3.5933 N   0  0  0  0  0  0  0  0  0  7  0  0
    0.0905    2.3523   -3.2442 C   0  0  0  0  0  0  0  0  0  8  0  0
    0.7415    2.7820   -2.4788 H   0  0  0  0  0  0  0  0  0 47  0  0
    0.6790    2.1382   -4.1448 H   0  0  0  0  0  0  0  0  0 48  0  0
   -0.5464    1.0714   -2.7167 C   0  0  0  0  0  0  0  0  0  9  0  0
   -1.1348    0.6067   -3.5193 H   0  0  0  0  0  0  0  0  0 45  0  0
    0.2110    0.3522   -2.3955 H   0  0  0  0  0  0  0  0  0 46  0  0
   -1.4386    1.3863   -1.6262 N   0  0  0  0  0  0  0  0  0 10  0  0
   -1.3415    0.9722   -0.3454 C   0  0  0  0  0  0  0  0  0 11  0  0
   -2.1257    1.3721    0.4960 O   0  0  0  0  0  0  0  0  0 12  0  0
   -0.2573   -0.0341    0.0462 C   0  0  0  0  0  0  0  0  0 13  0  0
    0.6297   -0.4373   -0.6541 O   0  0  0  0  0  0  0  0  0 14  0  0
   -0.4886   -0.3975    1.3464 N   0  0  0  0  0  0  0  0  0 15  0  0
    0.1362   -1.2370    2.1955 N   0  0  0  0  0  0  0  0  0 16  0  0
    1.1734   -1.8857    1.8787 C   0  0  0  0  0  0  0  0  0 17  0  0
    1.7808   -2.8224    2.8150 C   0  0  0  0  0  0  0  0  0 18  0  0
    3.0044   -3.4077    2.4671 C   0  0  0  0  0  0  0  0  0 19  0  0
    3.4652   -3.1390    1.5265 H   0  0  0  0  0  0  0  0  0 36  0  0
    3.6431   -4.2858    3.3077 C   0  0  0  0  0  0  0  0  0 20  0  0
    4.5861   -4.7341    3.0319 H   0  0  0  0  0  0  0  0  0 35  0  0
    3.0690   -4.6214    4.5194 C   0  0  0  0  0  0  0  0  0 21  0  0
    3.7653   -5.5063    5.2955 O   0  0  0  0  0  0  0  0  0 30  0  0
    3.2484   -5.8808    6.5465 C   0  0  0  0  0  0  0  0  0 31  0  0
    3.1307   -5.0332    7.2155 H   0  0  0  0  0  0  0  0  0 32  0  0
    3.9638   -6.5822    6.9522 H   0  0  0  0  0  0  0  0  0 33  0  0
    2.2813   -6.3846    6.4344 H   0  0  0  0  0  0  0  0  0 34  0  0
    1.8389   -4.0771    4.8898 C   0  0  0  0  0  0  0  0  0 22  0  0
    1.3773   -4.3402    5.8216 H   0  0  0  0  0  0  0  0  0 29  0  0
    1.1899   -3.1893    4.0360 C   0  0  0  0  0  0  0  0  0 23  0  0
   -0.0283   -2.6397    4.3363 O   0  0  0  0  0  0  0  0  0 24  0  0
   -0.6864   -3.0168    5.5183 C   0  0  0  0  0  0  0  0  0 25  0  0
   -0.1314   -2.7243    6.4175 H   0  0  0  0  0  0  0  0  0 26  0  0
   -1.6390   -2.4871    5.4969 H   0  0  0  0  0  0  0  0  0 27  0  0
   -0.8779   -4.0923    5.5524 H   0  0  0  0  0  0  0  0  0 28  0  0
    1.6891   -1.7847    0.9345 H   0  0  0  0  0  0  0  0  0 37  0  0
   -1.3074    0.0628    1.7556 H   0  0  0  0  0  0  0  0  0 38  0  0
   -2.4473    2.3594   -1.9823 C   0  0  0  0  0  0  0  0  0 39  0  0
   -3.0954    1.9290   -2.7617 H   0  0  0  0  0  0  0  0  0 43  0  0
   -3.0580    2.5474   -1.0813 H   0  0  0  0  0  0  0  0  0 44  0  0
   -1.7953    3.6506   -2.4966 C   0  0  0  0  0  0  0  0  0 40  0  0
   -2.5585    4.3497   -2.8265 H   0  0  0  0  0  0  0  0  0 41  0  0
   -1.2039    4.1061   -1.6913 H   0  0  0  0  0  0  0  0  0 42  0  0
   -1.7370    6.7633   -6.1663 H   0  0  0  0  0  0  0  0  0 49  0  0
   -0.6316    5.5754   -6.8962 H   0  0  0  0  0  0  0  0  0 50  0  0
   -1.9647    6.2354   -7.8396 H   0  0  0  0  0  0  0  0  0 51  0  0
  1  2  1  0
  2  3  1  0
  2  4  1  0
  2  5  1  0
  5  6  1  0
  6  7  2  0
  6  8  1  0
  8  9  1  0
  9 10  1  0
  9 11  1  0
  9 12  1  0
 12 13  1  0
 12 14  1  0
 12 15  1  0
 15 16  1  0
 16 17  2  0
 16 18  1  0
 18 19  2  0
 18 20  1  0
 20 21  1  0
 21 22  2  0
 22 23  1  0
 23 24  4  0
 24 25  1  0
 24 26  4  0
 26 27  1  0
 26 28  4  0
 28 29  1  0
 29 30  1  0
 30 31  1  0
 30 32  1  0
 30 33  1  0
 28 34  4  0
 34 35  1  0
 34 36  4  0
 36 37  1  0
 37 38  1  0
 38 39  1  0
 38 40  1  0
 38 41  1  0
 22 42  1  0
 20 43  1  0
 15 44  1  0
 44 45  1  0
 44 46  1  0
 44 47  1  0
 47 48  1  0
 47 49  1  0
  1 50  1  0
  1 51  1  0
  1 52  1  0
 47  8  1  0
 36 23  4  0
M  END
>  <sample_id>  (142)
train::CCOC(=O)N1CCN(C(=O)C(=O)N_N=C_c2ccc(OC)cc2OC)CC1__gen0000

>  <partition>  (142)
BAT_EXTERNAL_CONFIRM

>  <method>  (142)
BA_seed193

>  <candidate>  (142)
primary

$$$$
train::CCOC(=O)N1CCN(C(=O)C(=O)N_N=C_c2ccc(OC)cc2OC)CC1__gen0001
     RDKit          3D

 52 53  0  0  0  0  0  0  0  0999 V2000
    3.3043    3.5486    2.6136 C   0  0  0  0  0  0  0  0  0  0  0  0
    4.2569    2.4676    3.1174 C   0  0  0  0  0  0  0  0  0  1  0  0
    5.2276    2.5458    2.6402 H   0  0  0  0  0  0  0  0  0  2  0  0
    4.3509    2.5491    4.2027 H   0  0  0  0  0  0  0  0  0  3  0  0
    3.7864    1.1694    2.7833 O   0  0  0  0  0  0  0  0  0  4  0  0
    2.8144    0.6747    3.5675 C   0  0  0  0  0  0  0  0  0  5  0  0
    2.3597    1.2626    4.5158 O   0  0  0  0  0  0  0  0  0  6  0  0
    2.4526   -0.5878    3.2106 N   0  0  0  0  0  0  0  0  0  7  0  0
    2.8869   -1.2644    2.0122 C   0  0  0  0  0  0  0  0  0  8  0  0
    3.7144   -0.7166    1.5702 H   0  0  0  0  0  0  0  0  0 47  0  0
    3.2286   -2.2793    2.2595 H   0  0  0  0  0  0  0  0  0 48  0  0
    1.7220   -1.3657    1.0224 C   0  0  0  0  0  0  0  0  0  9  0  0
    1.4277   -0.3953    0.6752 H   0  0  0  0  0  0  0  0  0 45  0  0
    2.0311   -1.9967    0.1665 H   0  0  0  0  0  0  0  0  0 46  0  0
    0.6105   -1.9964    1.6886 N   0  0  0  0  0  0  0  0  0 10  0  0
   -0.0209   -3.1220    1.2957 C   0  0  0  0  0  0  0  0  0 11  0  0
   -0.9803   -3.5729    1.8921 O   0  0  0  0  0  0  0  0  0 12  0  0
    0.5957   -3.8783    0.0970 C   0  0  0  0  0  0  0  0  0 13  0  0
    1.3876   -4.7858    0.2089 O   0  0  0  0  0  0  0  0  0 14  0  0
    0.1135   -3.4409   -1.0679 N   0  0  0  0  0  0  0  0  0 15  0  0
   -0.6237   -2.3142   -1.1462 N   0  0  0  0  0  0  0  0  0 16  0  0
   -1.0141   -1.8739   -2.2738 C   0  0  0  0  0  0  0  0  0 17  0  0
   -1.8040   -0.6601   -2.3760 C   0  0  0  0  0  0  0  0  0 18  0  0
   -2.2246    0.0303   -1.2463 C   0  0  0  0  0  0  0  0  0 19  0  0
   -1.9943   -0.4017   -0.2826 H   0  0  0  0  0  0  0  0  0 36  0  0
   -2.9575    1.1887   -1.3299 C   0  0  0  0  0  0  0  0  0 20  0  0
   -3.2766    1.6745   -0.4213 H   0  0  0  0  0  0  0  0  0 35  0  0
   -3.2692    1.6945   -2.5895 C   0  0  0  0  0  0  0  0  0 21  0  0
   -3.9872    2.8356   -2.8139 O   0  0  0  0  0  0  0  0  0 30  0  0
   -4.4505    3.5692   -1.7005 C   0  0  0  0  0  0  0  0  0 31  0  0
   -3.6121    3.9242   -1.0786 H   0  0  0  0  0  0  0  0  0 32  0  0
   -4.9573    4.4403   -2.1045 H   0  0  0  0  0  0  0  0  0 33  0  0
   -5.1290    2.9895   -1.0862 H   0  0  0  0  0  0  0  0  0 34  0  0
   -2.8556    1.0300   -3.7316 C   0  0  0  0  0  0  0  0  0 22  0  0
   -3.1282    1.4629   -4.6812 H   0  0  0  0  0  0  0  0  0 29  0  0
   -2.1268   -0.1368   -3.6379 C   0  0  0  0  0  0  0  0  0 23  0  0
   -1.6900   -0.8409   -4.7228 O   0  0  0  0  0  0  0  0  0 24  0  0
   -2.0038   -0.3813   -6.0176 C   0  0  0  0  0  0  0  0  0 25  0  0
   -3.0804   -0.3420   -6.1687 H   0  0  0  0  0  0  0  0  0 26  0  0
   -1.5515   -1.0981   -6.6994 H   0  0  0  0  0  0  0  0  0 27  0  0
   -1.5660    0.6090   -6.1888 H   0  0  0  0  0  0  0  0  0 28  0  0
   -0.7586   -2.3787   -3.2134 H   0  0  0  0  0  0  0  0  0 37  0  0
    0.3508   -3.9333   -1.9338 H   0  0  0  0  0  0  0  0  0 38  0  0
    0.1442   -1.2821    2.8543 C   0  0  0  0  0  0  0  0  0 39  0  0
   -0.1804   -0.2813    2.5590 H   0  0  0  0  0  0  0  0  0 43  0  0
   -0.6785   -1.8355    3.2914 H   0  0  0  0  0  0  0  0  0 44  0  0
    1.2993   -1.1889    3.8613 C   0  0  0  0  0  0  0  0  0 40  0  0
    1.0270   -0.5739    4.7042 H   0  0  0  0  0  0  0  0  0 41  0  0
    1.5882   -2.1919    4.1914 H   0  0  0  0  0  0  0  0  0 42  0  0
    3.1841    3.4801    1.5419 H   0  0  0  0  0  0  0  0  0 49  0  0
    3.7103    4.5281    2.8603 H   0  0  0  0  0  0  0  0  0 50  0  0
    2.3467    3.4420    3.1096 H   0  0  0  0  0  0  0  0  0 51  0  0
  1  2  1  0
  2  3  1  0
  2  4  1  0
  2  5  1  0
  5  6  1  0
  6  7  2  0
  6  8  1  0
  8  9  1  0
  9 10  1  0
  9 11  1  0
  9 12  1  0
 12 13  1  0
 12 14  1  0
 12 15  1  0
 15 16  1  0
 16 17  2  0
 16 18  1  0
 18 19  2  0
 18 20  1  0
 20 21  1  0
 21 22  2  0
 22 23  1  0
 23 24  4  0
 24 25  1  0
 24 26  4  0
 26 27  1  0
 26 28  4  0
 28 29  1  0
 29 30  1  0
 30 31  1  0
 30 32  1  0
 30 33  1  0
 28 34  4  0
 34 35  1  0
 34 36  4  0
 36 37  1  0
 37 38  1  0
 38 39  1  0
 38 40  1  0
 38 41  1  0
 22 42  1  0
 20 43  1  0
 15 44  1  0
 44 45  1  0
 44 46  1  0
 44 47  1  0
 47 48  1  0
 47 49  1  0
  1 50  1  0
  1 51  1  0
  1 52  1  0
 47  8  1  0
 36 23  4  0
M  END
>  <sample_id>  (143)
train::CCOC(=O)N1CCN(C(=O)C(=O)N_N=C_c2ccc(OC)cc2OC)CC1__gen0001

>  <partition>  (143)
BAT_EXTERNAL_CONFIRM

>  <method>  (143)
BA_seed193

>  <candidate>  (143)
primary

$$$$
train::CCOC(=O)N1CCN(C(=O)C(=O)N_N=C_c2ccc(OC)cc2OC)CC1__gen0002
     RDKit          3D

 52 53  0  0  0  0  0  0  0  0999 V2000
    3.5412    0.1486   -3.0735 C   0  0  0  0  0  0  0  0  0  0  0  0
    2.3141   -0.4846   -2.4137 C   0  0  0  0  0  0  0  0  0  1  0  0
    2.4654   -0.5574   -1.3395 H   0  0  0  0  0  0  0  0  0  2  0  0
    2.1105   -1.4721   -2.8260 H   0  0  0  0  0  0  0  0  0  3  0  0
    1.1366    0.2695   -2.6853 O   0  0  0  0  0  0  0  0  0  4  0  0
    0.9280    1.3508   -1.9118 C   0  0  0  0  0  0  0  0  0  5  0  0
    1.6173    1.6848   -0.9834 O   0  0  0  0  0  0  0  0  0  6  0  0
   -0.1645    2.0669   -2.3247 N   0  0  0  0  0  0  0  0  0  7  0  0
   -1.1579    1.4661   -3.1673 C   0  0  0  0  0  0  0  0  0  8  0  0
   -0.6784    0.7943   -3.8749 H   0  0  0  0  0  0  0  0  0 47  0  0
   -1.6511    2.2742   -3.7202 H   0  0  0  0  0  0  0  0  0 48  0  0
   -2.1415    0.6993   -2.2812 C   0  0  0  0  0  0  0  0  0  9  0  0
   -1.7499   -0.2865   -2.0500 H   0  0  0  0  0  0  0  0  0 45  0  0
   -3.1049    0.5764   -2.7971 H   0  0  0  0  0  0  0  0  0 46  0  0
   -2.3264    1.4179   -1.0421 N   0  0  0  0  0  0  0  0  0 10  0  0
   -2.6182    0.9117    0.1749 C   0  0  0  0  0  0  0  0  0 11  0  0
   -2.9907    1.5982    1.1133 O   0  0  0  0  0  0  0  0  0 12  0  0
   -2.4506   -0.5970    0.3962 C   0  0  0  0  0  0  0  0  0 13  0  0
   -1.8642   -1.3391   -0.3569 O   0  0  0  0  0  0  0  0  0 14  0  0
   -3.0755   -0.9781    1.5462 N   0  0  0  0  0  0  0  0  0 15  0  0
   -3.0340   -2.2085    2.1009 N   0  0  0  0  0  0  0  0  0 16  0  0
   -1.9640   -2.8679    2.1509 C   0  0  0  0  0  0  0  0  0 17  0  0
   -0.6161   -2.3720    1.8743 C   0  0  0  0  0  0  0  0  0 18  0  0
    0.2731   -3.0594    1.0513 C   0  0  0  0  0  0  0  0  0 19  0  0
   -0.0583   -4.0045    0.6144 H   0  0  0  0  0  0  0  0  0 36  0  0
    1.5098   -2.5489    0.7507 C   0  0  0  0  0  0  0  0  0 20  0  0
    2.1882   -3.0809    0.1016 H   0  0  0  0  0  0  0  0  0 35  0  0
    1.9080   -1.3304    1.2714 C   0  0  0  0  0  0  0  0  0 21  0  0
    3.1343   -0.8817    0.9225 O   0  0  0  0  0  0  0  0  0 30  0  0
    3.5162    0.4308    1.2714 C   0  0  0  0  0  0  0  0  0 31  0  0
    2.7919    1.1562    0.8872 H   0  0  0  0  0  0  0  0  0 32  0  0
    3.6205    0.5377    2.3606 H   0  0  0  0  0  0  0  0  0 33  0  0
    4.4837    0.5959    0.8077 H   0  0  0  0  0  0  0  0  0 34  0  0
    1.0585   -0.6456    2.1455 C   0  0  0  0  0  0  0  0  0 22  0  0
    1.3344    0.3032    2.5887 H   0  0  0  0  0  0  0  0  0 29  0  0
   -0.1776   -1.1665    2.4451 C   0  0  0  0  0  0  0  0  0 23  0  0
   -0.9958   -0.4962    3.3060 O   0  0  0  0  0  0  0  0  0 24  0  0
   -1.0682   -1.0302    4.6159 C   0  0  0  0  0  0  0  0  0 25  0  0
   -1.7819   -0.4200    5.1789 H   0  0  0  0  0  0  0  0  0 26  0  0
   -0.0869   -0.9923    5.1109 H   0  0  0  0  0  0  0  0  0 27  0  0
   -1.4173   -2.0603    4.5877 H   0  0  0  0  0  0  0  0  0 28  0  0
   -2.0635   -3.9006    2.4836 H   0  0  0  0  0  0  0  0  0 37  0  0
   -3.5495   -0.2410    2.0522 H   0  0  0  0  0  0  0  0  0 38  0  0
   -2.1475    2.8593   -1.1623 C   0  0  0  0  0  0  0  0  0 39  0  0
   -2.8097    3.2497   -1.9396 H   0  0  0  0  0  0  0  0  0 43  0  0
   -2.4177    3.3081   -0.1988 H   0  0  0  0  0  0  0  0  0 44  0  0
   -0.6639    3.1279   -1.4831 C   0  0  0  0  0  0  0  0  0 40  0  0
   -0.5500    4.0922   -1.9981 H   0  0  0  0  0  0  0  0  0 41  0  0
   -0.0667    3.1611   -0.5734 H   0  0  0  0  0  0  0  0  0 42  0  0
    4.4178   -0.4642   -2.9120 H   0  0  0  0  0  0  0  0  0 49  0  0
    3.7137    1.1315   -2.6393 H   0  0  0  0  0  0  0  0  0 50  0  0
    3.3791    0.2736   -4.1561 H   0  0  0  0  0  0  0  0  0 51  0  0
  1  2  1  0
  2  3  1  0
  2  4  1  0
  2  5  1  0
  5  6  1  0
  6  7  2  0
  6  8  1  0
  8  9  1  0
  9 10  1  0
  9 11  1  0
  9 12  1  0
 12 13  1  0
 12 14  1  0
 12 15  1  0
 15 16  1  0
 16 17  2  0
 16 18  1  0
 18 19  2  0
 18 20  1  0
 20 21  1  0
 21 22  2  0
 22 23  1  0
 23 24  4  0
 24 25  1  0
 24 26  4  0
 26 27  1  0
 26 28  4  0
 28 29  1  0
 29 30  1  0
 30 31  1  0
 30 32  1  0
 30 33  1  0
 28 34  4  0
 34 35  1  0
 34 36  4  0
 36 37  1  0
 37 38  1  0
 38 39  1  0
 38 40  1  0
 38 41  1  0
 22 42  1  0
 20 43  1  0
 15 44  1  0
 44 45  1  0
 44 46  1  0
 44 47  1  0
 47 48  1  0
 47 49  1  0
  1 50  1  0
  1 51  1  0
  1 52  1  0
 47  8  1  0
 36 23  4  0
M  END
>  <sample_id>  (144)
train::CCOC(=O)N1CCN(C(=O)C(=O)N_N=C_c2ccc(OC)cc2OC)CC1__gen0002

>  <partition>  (144)
BAT_EXTERNAL_CONFIRM

>  <method>  (144)
BA_seed193

>  <candidate>  (144)
primary

$$$$
train::COc1ccc(-n2c(C)c(C)c3c(NCCN(C)C)ncnc32)cc1__gen0000
     RDKit          3D

 50 52  0  0  0  0  0  0  0  0999 V2000
    7.3645   -1.0048   -0.3243 C   0  0  0  0  0  0  0  0  0  0  0  0
    7.0732   -1.7605    0.4055 H   0  0  0  0  0  0  0  0  0  1  0  0
    6.8061    0.2441   -0.0228 O   0  0  0  0  0  0  0  0  0  2  0  0
    5.4547    0.3659    0.0289 C   0  0  0  0  0  0  0  0  0  3  0  0
    4.9590    1.6167    0.3793 C   0  0  0  0  0  0  0  0  0  4  0  0
    5.6732    2.3994    0.6195 H   0  0  0  0  0  0  0  0  0 47  0  0
    3.6017    1.8586    0.4554 C   0  0  0  0  0  0  0  0  0  5  0  0
    3.2494    2.8252    0.7795 H   0  0  0  0  0  0  0  0  0 46  0  0
    2.7084    0.8343    0.1693 C   0  0  0  0  0  0  0  0  0  6  0  0
    1.3178    1.0272    0.2296 N   0  0  0  0  0  0  0  0  0 11  0  0
    0.4592    0.1781    0.8038 C   0  0  0  0  0  0  0  0  0 12  0  0
    0.7645   -0.9769    1.4262 N   0  0  0  0  0  0  0  0  0 13  0  0
   -0.2853   -1.6289    1.8883 C   0  0  0  0  0  0  0  0  0 14  0  0
   -0.0649   -2.5594    2.3995 H   0  0  0  0  0  0  0  0  0 45  0  0
   -1.5507   -1.2898    1.8176 N   0  0  0  0  0  0  0  0  0 15  0  0
   -1.8873   -0.1496    1.2033 C   0  0  0  0  0  0  0  0  0 16  0  0
   -3.1891    0.2053    1.1585 N   0  0  0  0  0  0  0  0  0 17  0  0
   -3.4147    0.9946    0.5551 H   0  0  0  0  0  0  0  0  0 18  0  0
   -4.2718   -0.6739    1.4721 C   0  0  0  0  0  0  0  0  0 19  0  0
   -3.8530   -1.5037    2.0450 H   0  0  0  0  0  0  0  0  0 20  0  0
   -4.9948   -0.1443    2.0936 H   0  0  0  0  0  0  0  0  0 21  0  0
   -4.9822   -1.1665    0.1997 C   0  0  0  0  0  0  0  0  0 22  0  0
   -4.0434   -1.7034   -0.7723 N   0  0  0  0  0  0  0  0  0 23  0  0
   -3.4637   -2.9699   -0.3354 C   0  0  0  0  0  0  0  0  0 24  0  0
   -2.9390   -2.8163    0.6118 H   0  0  0  0  0  0  0  0  0 25  0  0
   -4.2268   -3.7461   -0.2130 H   0  0  0  0  0  0  0  0  0 26  0  0
   -2.7454   -3.3101   -1.0881 H   0  0  0  0  0  0  0  0  0 27  0  0
   -4.6417   -1.8252   -2.0745 C   0  0  0  0  0  0  0  0  0 28  0  0
   -5.4979   -2.5221   -2.0974 H   0  0  0  0  0  0  0  0  0 29  0  0
   -3.8910   -2.1805   -2.7873 H   0  0  0  0  0  0  0  0  0 30  0  0
   -4.9819   -0.8472   -2.4190 H   0  0  0  0  0  0  0  0  0 31  0  0
   -5.7547   -1.8956    0.4719 H   0  0  0  0  0  0  0  0  0 32  0  0
   -5.4689   -0.3029   -0.2719 H   0  0  0  0  0  0  0  0  0 33  0  0
   -0.8568    0.6634    0.6630 C   0  0  0  0  0  0  0  0  0 34  0  0
   -0.7565    1.9062   -0.0138 C   0  0  0  0  0  0  0  0  0 35  0  0
   -1.8703    2.8205   -0.3972 C   0  0  0  0  0  0  0  0  0 41  0  0
   -2.4297    3.1406    0.4829 H   0  0  0  0  0  0  0  0  0 42  0  0
   -2.5505    2.3165   -1.0910 H   0  0  0  0  0  0  0  0  0 43  0  0
   -1.4785    3.7089   -0.9043 H   0  0  0  0  0  0  0  0  0 44  0  0
    0.5833    2.1027   -0.2664 C   0  0  0  0  0  0  0  0  0 36  0  0
    1.2321    3.2583   -0.9596 C   0  0  0  0  0  0  0  0  0 37  0  0
    0.4783    3.8202   -1.5023 H   0  0  0  0  0  0  0  0  0 38  0  0
    2.0374    2.9182   -1.6098 H   0  0  0  0  0  0  0  0  0 39  0  0
    1.6902    3.9274   -0.2380 H   0  0  0  0  0  0  0  0  0 40  0  0
    3.1929   -0.4208   -0.1812 C   0  0  0  0  0  0  0  0  0  7  0  0
    2.4881   -1.2058   -0.4024 H   0  0  0  0  0  0  0  0  0 10  0  0
    4.5493   -0.6624   -0.2489 C   0  0  0  0  0  0  0  0  0  8  0  0
    4.8831   -1.6459   -0.5210 H   0  0  0  0  0  0  0  0  0  9  0  0
    7.0818   -1.3430   -1.3274 H   0  0  0  0  0  0  0  0  0 48  0  0
    8.4426   -0.8767   -0.2898 H   0  0  0  0  0  0  0  0  0 49  0  0
  1  2  1  0
  1  3  1  0
  3  4  1  0
  4  5  4  0
  5  6  1  0
  5  7  4  0
  7  8  1  0
  7  9  4  0
  9 10  1  0
 10 11  4  0
 11 12  4  0
 12 13  4  0
 13 14  1  0
 13 15  4  0
 15 16  4  0
 16 17  1  0
 17 18  1  0
 17 19  1  0
 19 20  1  0
 19 21  1  0
 19 22  1  0
 22 23  1  0
 23 24  1  0
 24 25  1  0
 24 26  1  0
 24 27  1  0
 23 28  1  0
 28 29  1  0
 28 30  1  0
 28 31  1  0
 22 32  1  0
 22 33  1  0
 16 34  4  0
 34 35  4  0
 35 36  1  0
 36 37  1  0
 36 38  1  0
 36 39  1  0
 35 40  4  0
 40 41  1  0
 41 42  1  0
 41 43  1  0
 41 44  1  0
  9 45  4  0
 45 46  1  0
 45 47  4  0
 47 48  1  0
  1 49  1  0
  1 50  1  0
 47  4  4  0
 40 10  4  0
 34 11  4  0
M  END
>  <sample_id>  (145)
train::COc1ccc(-n2c(C)c(C)c3c(NCCN(C)C)ncnc32)cc1__gen0000

>  <partition>  (145)
BAT_EXTERNAL_CONFIRM

>  <method>  (145)
BA_seed193

>  <candidate>  (145)
primary

$$$$
train::COc1ccc(-n2c(C)c(C)c3c(NCCN(C)C)ncnc32)cc1__gen0001
     RDKit          3D

 50 52  0  0  0  0  0  0  0  0999 V2000
    4.6905    4.6933    4.4715 C   0  0  0  0  0  0  0  0  0  0  0  0
    5.1488    4.8109    3.4764 H   0  0  0  0  0  0  0  0  0  1  0  0
    4.1642    3.4067    4.6432 O   0  0  0  0  0  0  0  0  0  2  0  0
    3.1960    2.9613    3.8067 C   0  0  0  0  0  0  0  0  0  3  0  0
    2.6400    3.7187    2.7766 C   0  0  0  0  0  0  0  0  0  4  0  0
    2.9734    4.7236    2.5695 H   0  0  0  0  0  0  0  0  0 47  0  0
    1.6573    3.1679    1.9690 C   0  0  0  0  0  0  0  0  0  5  0  0
    1.2466    3.7417    1.1519 H   0  0  0  0  0  0  0  0  0 46  0  0
    1.1953    1.8801    2.2126 C   0  0  0  0  0  0  0  0  0  6  0  0
    0.1892    1.2868    1.4111 N   0  0  0  0  0  0  0  0  0 11  0  0
    0.3149    0.1159    0.7841 C   0  0  0  0  0  0  0  0  0 12  0  0
    1.3666   -0.7110    0.8533 N   0  0  0  0  0  0  0  0  0 13  0  0
    1.2399   -1.8059    0.1201 C   0  0  0  0  0  0  0  0  0 14  0  0
    2.0729   -2.5055    0.1338 H   0  0  0  0  0  0  0  0  0 45  0  0
    0.2078   -2.1693   -0.6082 N   0  0  0  0  0  0  0  0  0 15  0  0
   -0.8606   -1.3627   -0.6670 C   0  0  0  0  0  0  0  0  0 16  0  0
   -1.9178   -1.7873   -1.4102 N   0  0  0  0  0  0  0  0  0 17  0  0
   -2.6389   -1.0962   -1.5772 H   0  0  0  0  0  0  0  0  0 18  0  0
   -1.8888   -2.9523   -2.2431 C   0  0  0  0  0  0  0  0  0 19  0  0
   -1.2110   -3.6678   -1.7581 H   0  0  0  0  0  0  0  0  0 20  0  0
   -2.8946   -3.3747   -2.2789 H   0  0  0  0  0  0  0  0  0 21  0  0
   -1.3777   -2.6285   -3.6614 C   0  0  0  0  0  0  0  0  0 22  0  0
   -1.2551   -3.7491   -4.5605 N   0  0  0  0  0  0  0  0  0 23  0  0
   -0.1069   -4.5822   -4.2935 C   0  0  0  0  0  0  0  0  0 24  0  0
    0.0250   -5.2664   -5.1326 H   0  0  0  0  0  0  0  0  0 25  0  0
    0.7798   -3.9595   -4.2216 H   0  0  0  0  0  0  0  0  0 26  0  0
   -0.2150   -5.1788   -3.3877 H   0  0  0  0  0  0  0  0  0 27  0  0
   -2.4630   -4.5095   -4.7440 C   0  0  0  0  0  0  0  0  0 28  0  0
   -2.6929   -5.1680   -3.8911 H   0  0  0  0  0  0  0  0  0 29  0  0
   -3.3020   -3.8311   -4.9092 H   0  0  0  0  0  0  0  0  0 30  0  0
   -2.3608   -5.1338   -5.6293 H   0  0  0  0  0  0  0  0  0 31  0  0
   -0.4012   -2.1504   -3.5758 H   0  0  0  0  0  0  0  0  0 32  0  0
   -2.0636   -1.9061   -4.1245 H   0  0  0  0  0  0  0  0  0 33  0  0
   -0.8548   -0.1473    0.0528 C   0  0  0  0  0  0  0  0  0 34  0  0
   -1.7239    0.9589    0.2592 C   0  0  0  0  0  0  0  0  0 35  0  0
   -3.0966    1.1531   -0.2892 C   0  0  0  0  0  0  0  0  0 41  0  0
   -3.5390    2.0692    0.1021 H   0  0  0  0  0  0  0  0  0 42  0  0
   -3.7428    0.3153   -0.0088 H   0  0  0  0  0  0  0  0  0 43  0  0
   -3.0692    1.2172   -1.3788 H   0  0  0  0  0  0  0  0  0 44  0  0
   -1.0649    1.8328    1.0937 C   0  0  0  0  0  0  0  0  0 36  0  0
   -1.6088    3.0825    1.6794 C   0  0  0  0  0  0  0  0  0 37  0  0
   -0.8220    3.7633    1.9922 H   0  0  0  0  0  0  0  0  0 38  0  0
   -2.2017    2.8672    2.5638 H   0  0  0  0  0  0  0  0  0 39  0  0
   -2.2430    3.5779    0.9446 H   0  0  0  0  0  0  0  0  0 40  0  0
    1.7595    1.1226    3.2303 C   0  0  0  0  0  0  0  0  0  7  0  0
    1.4171    0.1096    3.3840 H   0  0  0  0  0  0  0  0  0 10  0  0
    2.7540    1.6636    4.0214 C   0  0  0  0  0  0  0  0  0  8  0  0
    3.1931    1.0892    4.8202 H   0  0  0  0  0  0  0  0  0  9  0  0
    5.4539    4.8359    5.2314 H   0  0  0  0  0  0  0  0  0 48  0  0
    3.9311    5.4779    4.5957 H   0  0  0  0  0  0  0  0  0 49  0  0
  1  2  1  0
  1  3  1  0
  3  4  1  0
  4  5  4  0
  5  6  1  0
  5  7  4  0
  7  8  1  0
  7  9  4  0
  9 10  1  0
 10 11  4  0
 11 12  4  0
 12 13  4  0
 13 14  1  0
 13 15  4  0
 15 16  4  0
 16 17  1  0
 17 18  1  0
 17 19  1  0
 19 20  1  0
 19 21  1  0
 19 22  1  0
 22 23  1  0
 23 24  1  0
 24 25  1  0
 24 26  1  0
 24 27  1  0
 23 28  1  0
 28 29  1  0
 28 30  1  0
 28 31  1  0
 22 32  1  0
 22 33  1  0
 16 34  4  0
 34 35  4  0
 35 36  1  0
 36 37  1  0
 36 38  1  0
 36 39  1  0
 35 40  4  0
 40 41  1  0
 41 42  1  0
 41 43  1  0
 41 44  1  0
  9 45  4  0
 45 46  1  0
 45 47  4  0
 47 48  1  0
  1 49  1  0
  1 50  1  0
 47  4  4  0
 40 10  4  0
 34 11  4  0
M  END
>  <sample_id>  (146)
train::COc1ccc(-n2c(C)c(C)c3c(NCCN(C)C)ncnc32)cc1__gen0001

>  <partition>  (146)
BAT_EXTERNAL_CONFIRM

>  <method>  (146)
BA_seed193

>  <candidate>  (146)
primary

$$$$
train::COc1ccc(-n2c(C)c(C)c3c(NCCN(C)C)ncnc32)cc1__gen0002
     RDKit          3D

 50 52  0  0  0  0  0  0  0  0999 V2000
    6.3961   -3.0004   -3.6664 C   0  0  0  0  0  0  0  0  0  0  0  0
    5.9985   -2.6476   -4.6269 H   0  0  0  0  0  0  0  0  0  1  0  0
    5.4128   -3.6546   -2.9148 O   0  0  0  0  0  0  0  0  0  2  0  0
    4.3229   -2.9498   -2.5081 C   0  0  0  0  0  0  0  0  0  3  0  0
    3.4033   -3.6477   -1.7278 C   0  0  0  0  0  0  0  0  0  4  0  0
    3.6241   -4.6711   -1.4715 H   0  0  0  0  0  0  0  0  0 47  0  0
    2.2598   -3.0360   -1.2676 C   0  0  0  0  0  0  0  0  0  5  0  0
    1.5927   -3.5713   -0.6184 H   0  0  0  0  0  0  0  0  0 46  0  0
    1.9933   -1.7062   -1.5907 C   0  0  0  0  0  0  0  0  0  6  0  0
    0.8473   -1.0348   -1.1534 N   0  0  0  0  0  0  0  0  0 11  0  0
    0.8538    0.1815   -0.5643 C   0  0  0  0  0  0  0  0  0 12  0  0
    1.9212    0.9555   -0.3240 N   0  0  0  0  0  0  0  0  0 13  0  0
    1.6275    2.0909    0.2691 C   0  0  0  0  0  0  0  0  0 14  0  0
    2.4720    2.7448    0.4665 H   0  0  0  0  0  0  0  0  0 45  0  0
    0.4469    2.5262    0.6460 N   0  0  0  0  0  0  0  0  0 15  0  0
   -0.6243    1.7793    0.4326 C   0  0  0  0  0  0  0  0  0 16  0  0
   -1.8330    2.2584    0.8007 N   0  0  0  0  0  0  0  0  0 17  0  0
   -2.6189    1.6281    0.7935 H   0  0  0  0  0  0  0  0  0 18  0  0
   -1.9814    3.4439    1.6194 C   0  0  0  0  0  0  0  0  0 19  0  0
   -2.8080    4.0347    1.2273 H   0  0  0  0  0  0  0  0  0 20  0  0
   -1.0571    4.0195    1.5344 H   0  0  0  0  0  0  0  0  0 21  0  0
   -2.2262    3.0567    3.0731 C   0  0  0  0  0  0  0  0  0 22  0  0
   -3.4501    2.3064    3.2299 N   0  0  0  0  0  0  0  0  0 23  0  0
   -3.4216    1.3810    4.3332 C   0  0  0  0  0  0  0  0  0 24  0  0
   -4.3651    0.8432    4.3839 H   0  0  0  0  0  0  0  0  0 25  0  0
   -3.2547    1.8941    5.2860 H   0  0  0  0  0  0  0  0  0 26  0  0
   -2.6172    0.6684    4.1787 H   0  0  0  0  0  0  0  0  0 27  0  0
   -4.6299    3.1487    3.2676 C   0  0  0  0  0  0  0  0  0 28  0  0
   -4.6961    3.7304    2.3441 H   0  0  0  0  0  0  0  0  0 29  0  0
   -5.5326    2.5414    3.3582 H   0  0  0  0  0  0  0  0  0 30  0  0
   -4.6020    3.8523    4.1118 H   0  0  0  0  0  0  0  0  0 31  0  0
   -1.3938    2.4188    3.3872 H   0  0  0  0  0  0  0  0  0 32  0  0
   -2.2150    3.9565    3.6966 H   0  0  0  0  0  0  0  0  0 33  0  0
   -0.4587    0.5279   -0.2129 C   0  0  0  0  0  0  0  0  0 34  0  0
   -1.2974   -0.5432   -0.6359 C   0  0  0  0  0  0  0  0  0 35  0  0
   -2.7754   -0.6261   -0.4625 C   0  0  0  0  0  0  0  0  0 41  0  0
   -3.1487   -1.5870   -0.8292 H   0  0  0  0  0  0  0  0  0 42  0  0
   -3.2827    0.1813   -1.0047 H   0  0  0  0  0  0  0  0  0 43  0  0
   -3.0532   -0.5389    0.5962 H   0  0  0  0  0  0  0  0  0 44  0  0
   -0.4663   -1.4794   -1.2057 C   0  0  0  0  0  0  0  0  0 36  0  0
   -0.8816   -2.7436   -1.8851 C   0  0  0  0  0  0  0  0  0 37  0  0
   -1.4732   -3.3575   -1.2089 H   0  0  0  0  0  0  0  0  0 38  0  0
   -1.4739   -2.5362   -2.7550 H   0  0  0  0  0  0  0  0  0 39  0  0
   -0.0130   -3.3172   -2.2128 H   0  0  0  0  0  0  0  0  0 40  0  0
    2.9134   -1.0022   -2.3672 C   0  0  0  0  0  0  0  0  0  7  0  0
    2.7294    0.0284   -2.6060 H   0  0  0  0  0  0  0  0  0 10  0  0
    4.0678   -1.6145   -2.8232 C   0  0  0  0  0  0  0  0  0  8  0  0
    4.7523   -1.0382   -3.4119 H   0  0  0  0  0  0  0  0  0  9  0  0
    6.8304   -2.1566   -3.1206 H   0  0  0  0  0  0  0  0  0 48  0  0
    7.1853   -3.7380   -3.8606 H   0  0  0  0  0  0  0  0  0 49  0  0
  1  2  1  0
  1  3  1  0
  3  4  1  0
  4  5  4  0
  5  6  1  0
  5  7  4  0
  7  8  1  0
  7  9  4  0
  9 10  1  0
 10 11  4  0
 11 12  4  0
 12 13  4  0
 13 14  1  0
 13 15  4  0
 15 16  4  0
 16 17  1  0
 17 18  1  0
 17 19  1  0
 19 20  1  0
 19 21  1  0
 19 22  1  0
 22 23  1  0
 23 24  1  0
 24 25  1  0
 24 26  1  0
 24 27  1  0
 23 28  1  0
 28 29  1  0
 28 30  1  0
 28 31  1  0
 22 32  1  0
 22 33  1  0
 16 34  4  0
 34 35  4  0
 35 36  1  0
 36 37  1  0
 36 38  1  0
 36 39  1  0
 35 40  4  0
 40 41  1  0
 41 42  1  0
 41 43  1  0
 41 44  1  0
  9 45  4  0
 45 46  1  0
 45 47  4  0
 47 48  1  0
  1 49  1  0
  1 50  1  0
 47  4  4  0
 40 10  4  0
 34 11  4  0
M  END
>  <sample_id>  (147)
train::COc1ccc(-n2c(C)c(C)c3c(NCCN(C)C)ncnc32)cc1__gen0002

>  <partition>  (147)
BAT_EXTERNAL_CONFIRM

>  <method>  (147)
BA_seed193

>  <candidate>  (147)
primary

$$$$
train::CCCCNC(=O)CCC(=O)Nc1ccc2nc(N3CCN(C)CC3)cc(C)c2c1__gen0000
     RDKit          3D

 63 65  0  0  0  0  0  0  0  0999 V2000
    2.7260   -1.5933   -0.1660 C   0  0  0  0  0  0  0  0  0  0  0  0
    2.1757   -2.0428    1.1822 C   0  0  0  0  0  0  0  0  0  1  0  0
    3.2082   -2.8530    1.9882 C   0  0  0  0  0  0  0  0  0  2  0  0
    3.5174   -4.2058    1.3610 C   0  0  0  0  0  0  0  0  0  3  0  0
    2.3743   -5.0966    1.3663 N   0  0  0  0  0  0  0  0  0  4  0  0
    1.7011   -5.4439    0.2468 C   0  0  0  0  0  0  0  0  0  5  0  0
    1.9962   -5.0508   -0.8607 O   0  0  0  0  0  0  0  0  0  6  0  0
    0.5639   -6.4413    0.4756 C   0  0  0  0  0  0  0  0  0  7  0  0
    0.3733   -6.5651    1.5395 H   0  0  0  0  0  0  0  0  0  8  0  0
   -0.7099   -5.9657   -0.2150 C   0  0  0  0  0  0  0  0  0  9  0  0
   -0.5361   -5.9045   -1.3003 H   0  0  0  0  0  0  0  0  0 10  0  0
   -1.1215   -4.6143    0.3500 C   0  0  0  0  0  0  0  0  0 11  0  0
   -1.6192   -4.4985    1.4524 O   0  0  0  0  0  0  0  0  0 12  0  0
   -0.8283   -3.5811   -0.4601 N   0  0  0  0  0  0  0  0  0 13  0  0
   -1.0034   -2.2084   -0.2381 C   0  0  0  0  0  0  0  0  0 14  0  0
   -0.6567   -1.3551   -1.2732 C   0  0  0  0  0  0  0  0  0 15  0  0
   -0.2903   -1.7606   -2.2029 H   0  0  0  0  0  0  0  0  0 49  0  0
   -0.7707    0.0407   -1.1285 C   0  0  0  0  0  0  0  0  0 16  0  0
   -1.2539    0.5483    0.1116 C   0  0  0  0  0  0  0  0  0 17  0  0
   -1.3569    1.8617    0.3677 N   0  0  0  0  0  0  0  0  0 18  0  0
   -1.0287    2.7383   -0.5869 C   0  0  0  0  0  0  0  0  0 19  0  0
   -1.1815    4.0592   -0.2774 N   0  0  0  0  0  0  0  0  0 20  0  0
   -0.8081    5.1754   -1.1149 C   0  0  0  0  0  0  0  0  0 21  0  0
   -0.7128    4.8565   -2.1507 H   0  0  0  0  0  0  0  0  0 22  0  0
    0.1532    5.5759   -0.7856 H   0  0  0  0  0  0  0  0  0 37  0  0
   -1.8862    6.2780   -1.0430 C   0  0  0  0  0  0  0  0  0 23  0  0
   -1.5519    7.1420   -1.6222 H   0  0  0  0  0  0  0  0  0 35  0  0
   -2.8219    5.9026   -1.4807 H   0  0  0  0  0  0  0  0  0 36  0  0
   -2.1806    6.6965    0.3134 N   0  0  0  0  0  0  0  0  0 24  0  0
   -1.1938    7.5612    0.8910 C   0  0  0  0  0  0  0  0  0 25  0  0
   -0.1914    7.0996    0.9960 H   0  0  0  0  0  0  0  0  0 26  0  0
   -1.5114    7.8744    1.8763 H   0  0  0  0  0  0  0  0  0 27  0  0
   -1.0913    8.4509    0.2616 H   0  0  0  0  0  0  0  0  0 28  0  0
   -2.5464    5.5446    1.0981 C   0  0  0  0  0  0  0  0  0 29  0  0
   -3.4733    5.1315    0.6933 H   0  0  0  0  0  0  0  0  0 33  0  0
   -2.7275    5.8670    2.1277 H   0  0  0  0  0  0  0  0  0 34  0  0
   -1.4828    4.4411    1.0858 C   0  0  0  0  0  0  0  0  0 30  0  0
   -1.8326    3.5533    1.6083 H   0  0  0  0  0  0  0  0  0 31  0  0
   -0.5699    4.7986    1.5806 H   0  0  0  0  0  0  0  0  0 32  0  0
   -0.5598    2.3140   -1.8592 C   0  0  0  0  0  0  0  0  0 38  0  0
   -0.2998    3.0232   -2.6276 H   0  0  0  0  0  0  0  0  0 44  0  0
   -0.4506    0.9803   -2.1365 C   0  0  0  0  0  0  0  0  0 39  0  0
    0.0287    0.5009   -3.4713 C   0  0  0  0  0  0  0  0  0 40  0  0
    0.9508   -0.0503   -3.3602 H   0  0  0  0  0  0  0  0  0 41  0  0
   -0.7159   -0.1560   -3.9410 H   0  0  0  0  0  0  0  0  0 42  0  0
    0.1941    1.3329   -4.1531 H   0  0  0  0  0  0  0  0  0 43  0  0
   -1.6221   -0.3371    1.1395 C   0  0  0  0  0  0  0  0  0 45  0  0
   -1.9795    0.0767    2.0654 H   0  0  0  0  0  0  0  0  0 48  0  0
   -1.4981   -1.6964    0.9658 C   0  0  0  0  0  0  0  0  0 46  0  0
   -1.7635   -2.3745    1.7530 H   0  0  0  0  0  0  0  0  0 47  0  0
   -0.3450   -3.7851   -1.3239 H   0  0  0  0  0  0  0  0  0 50  0  0
   -1.5014   -6.6973   -0.0407 H   0  0  0  0  0  0  0  0  0 51  0  0
    0.8840   -7.4063    0.0605 H   0  0  0  0  0  0  0  0  0 52  0  0
    2.0183   -5.3785    2.2563 H   0  0  0  0  0  0  0  0  0 53  0  0
    4.3242   -4.6991    1.9036 H   0  0  0  0  0  0  0  0  0 54  0  0
    3.8141   -4.0888    0.3193 H   0  0  0  0  0  0  0  0  0 55  0  0
    2.8125   -3.0095    2.9977 H   0  0  0  0  0  0  0  0  0 56  0  0
    4.1299   -2.2898    2.0828 H   0  0  0  0  0  0  0  0  0 57  0  0
    1.2781   -2.6479    1.0330 H   0  0  0  0  0  0  0  0  0 58  0  0
    1.9064   -1.1762    1.7732 H   0  0  0  0  0  0  0  0  0 59  0  0
    2.9019   -2.4534   -0.8125 H   0  0  0  0  0  0  0  0  0 60  0  0
    1.9933   -0.9509   -0.6448 H   0  0  0  0  0  0  0  0  0 61  0  0
    3.6491   -1.0473   -0.0465 H   0  0  0  0  0  0  0  0  0 62  0  0
  1  2  1  0
  2  3  1  0
  3  4  1  0
  4  5  1  0
  5  6  1  0
  6  7  2  0
  6  8  1  0
  8  9  1  0
  8 10  1  0
 10 11  1  0
 10 12  1  0
 12 13  2  0
 12 14  1  0
 14 15  1  0
 15 16  4  0
 16 17  1  0
 16 18  4  0
 18 19  4  0
 19 20  4  0
 20 21  4  0
 21 22  1  0
 22 23  1  0
 23 24  1  0
 23 25  1  0
 23 26  1  0
 26 27  1  0
 26 28  1  0
 26 29  1  0
 29 30  1  0
 30 31  1  0
 30 32  1  0
 30 33  1  0
 29 34  1  0
 34 35  1  0
 34 36  1  0
 34 37  1  0
 37 38  1  0
 37 39  1  0
 21 40  4  0
 40 41  1  0
 40 42  4  0
 42 43  1  0
 43 44  1  0
 43 45  1  0
 43 46  1  0
 19 47  4  0
 47 48  1  0
 47 49  4  0
 49 50  1  0
 14 51  1  0
 10 52  1  0
  8 53  1  0
  5 54  1  0
  4 55  1  0
  4 56  1  0
  3 57  1  0
  3 58  1  0
  2 59  1  0
  2 60  1  0
  1 61  1  0
  1 62  1  0
  1 63  1  0
 49 15  4  0
 42 18  4  0
 37 22  1  0
M  END
>  <sample_id>  (148)
train::CCCCNC(=O)CCC(=O)Nc1ccc2nc(N3CCN(C)CC3)cc(C)c2c1__gen0000

>  <partition>  (148)
BAT_EXTERNAL_CONFIRM

>  <method>  (148)
BA_seed193

>  <candidate>  (148)
primary

$$$$
train::CCCCNC(=O)CCC(=O)Nc1ccc2nc(N3CCN(C)CC3)cc(C)c2c1__gen0001
     RDKit          3D

 63 65  0  0  0  0  0  0  0  0999 V2000
   -1.8721    0.9532   -0.8018 C   0  0  0  0  0  0  0  0  0  0  0  0
   -2.2382    0.7218    0.6615 C   0  0  0  0  0  0  0  0  0  1  0  0
   -2.5454   -0.7336    0.9436 C   0  0  0  0  0  0  0  0  0  2  0  0
   -2.9578   -0.9689    2.3844 C   0  0  0  0  0  0  0  0  0  3  0  0
   -3.0333   -2.3860    2.6915 N   0  0  0  0  0  0  0  0  0  4  0  0
   -2.4724   -2.9403    3.7739 C   0  0  0  0  0  0  0  0  0  5  0  0
   -1.9854   -2.2949    4.6871 O   0  0  0  0  0  0  0  0  0  6  0  0
   -2.4718   -4.4672    3.7711 C   0  0  0  0  0  0  0  0  0  7  0  0
   -2.9024   -4.8269    4.6928 H   0  0  0  0  0  0  0  0  0  8  0  0
   -1.0134   -4.9544    3.6595 C   0  0  0  0  0  0  0  0  0  9  0  0
   -0.9966   -6.0391    3.4729 H   0  0  0  0  0  0  0  0  0 10  0  0
   -0.3211   -4.2552    2.4876 C   0  0  0  0  0  0  0  0  0 11  0  0
   -0.3568   -4.6935    1.3581 O   0  0  0  0  0  0  0  0  0 12  0  0
    0.2161   -3.0719    2.8602 N   0  0  0  0  0  0  0  0  0 13  0  0
    0.6949   -2.0465    2.0300 C   0  0  0  0  0  0  0  0  0 14  0  0
    0.9022   -2.2133    0.6773 C   0  0  0  0  0  0  0  0  0 15  0  0
    0.7295   -3.1507    0.2112 H   0  0  0  0  0  0  0  0  0 49  0  0
    1.2874   -1.1078   -0.1158 C   0  0  0  0  0  0  0  0  0 16  0  0
    1.5072    0.1492    0.5125 C   0  0  0  0  0  0  0  0  0 17  0  0
    1.8456    1.2597   -0.1993 N   0  0  0  0  0  0  0  0  0 18  0  0
    1.9947    1.1781   -1.5007 C   0  0  0  0  0  0  0  0  0 19  0  0
    2.3834    2.3285   -2.1362 N   0  0  0  0  0  0  0  0  0 20  0  0
    2.3506    3.5586   -1.3866 C   0  0  0  0  0  0  0  0  0 21  0  0
    2.4635    3.3244   -0.3318 H   0  0  0  0  0  0  0  0  0 22  0  0
    3.1904    4.1932   -1.7098 H   0  0  0  0  0  0  0  0  0 37  0  0
    1.0133    4.2885   -1.6239 C   0  0  0  0  0  0  0  0  0 23  0  0
    0.1970    3.6737   -1.2380 H   0  0  0  0  0  0  0  0  0 35  0  0
    1.0084    5.2531   -1.0879 H   0  0  0  0  0  0  0  0  0 36  0  0
    0.7499    4.5300   -3.0334 N   0  0  0  0  0  0  0  0  0 24  0  0
    1.4715    5.6423   -3.5801 C   0  0  0  0  0  0  0  0  0 25  0  0
    1.1266    5.8233   -4.6027 H   0  0  0  0  0  0  0  0  0 26  0  0
    2.5624    5.5125   -3.6069 H   0  0  0  0  0  0  0  0  0 27  0  0
    1.2542    6.5362   -3.0017 H   0  0  0  0  0  0  0  0  0 28  0  0
    0.8696    3.3054   -3.7811 C   0  0  0  0  0  0  0  0  0 29  0  0
    0.0619    2.6383   -3.4622 H   0  0  0  0  0  0  0  0  0 33  0  0
    0.7325    3.5215   -4.8412 H   0  0  0  0  0  0  0  0  0 34  0  0
    2.2040    2.5637   -3.5522 C   0  0  0  0  0  0  0  0  0 30  0  0
    2.2319    1.6469   -4.1203 H   0  0  0  0  0  0  0  0  0 31  0  0
    3.0377    3.2000   -3.8836 H   0  0  0  0  0  0  0  0  0 32  0  0
    1.8319   -0.0376   -2.1946 C   0  0  0  0  0  0  0  0  0 38  0  0
    2.0058   -0.1111   -3.2605 H   0  0  0  0  0  0  0  0  0 44  0  0
    1.4783   -1.1910   -1.5274 C   0  0  0  0  0  0  0  0  0 39  0  0
    1.2910   -2.4780   -2.2422 C   0  0  0  0  0  0  0  0  0 40  0  0
    1.4826   -2.3554   -3.3188 H   0  0  0  0  0  0  0  0  0 41  0  0
    0.2862   -2.8529   -2.0929 H   0  0  0  0  0  0  0  0  0 42  0  0
    1.9830   -3.2409   -1.8536 H   0  0  0  0  0  0  0  0  0 43  0  0
    1.3405    0.2763    1.8933 C   0  0  0  0  0  0  0  0  0 45  0  0
    1.5167    1.2510    2.3528 H   0  0  0  0  0  0  0  0  0 48  0  0
    0.9115   -0.7956    2.6357 C   0  0  0  0  0  0  0  0  0 46  0  0
    0.7595   -0.6967    3.7076 H   0  0  0  0  0  0  0  0  0 47  0  0
    0.0887   -2.7901    3.8299 H   0  0  0  0  0  0  0  0  0 50  0  0
   -0.4875   -4.7530    4.5979 H   0  0  0  0  0  0  0  0  0 51  0  0
   -3.0462   -4.8408    2.9284 H   0  0  0  0  0  0  0  0  0 52  0  0
   -3.3496   -2.9798    1.9339 H   0  0  0  0  0  0  0  0  0 53  0  0
   -3.9336   -0.5105    2.5832 H   0  0  0  0  0  0  0  0  0 54  0  0
   -2.2295   -0.5341    3.0855 H   0  0  0  0  0  0  0  0  0 55  0  0
   -3.3464   -1.0628    0.2738 H   0  0  0  0  0  0  0  0  0 56  0  0
   -1.6502   -1.3303    0.7220 H   0  0  0  0  0  0  0  0  0 57  0  0
   -1.3890    1.0390    1.2778 H   0  0  0  0  0  0  0  0  0 58  0  0
   -3.1019    1.3539    0.9136 H   0  0  0  0  0  0  0  0  0 59  0  0
   -1.0242    0.3292   -1.0799 H   0  0  0  0  0  0  0  0  0 60  0  0
   -1.6244    1.9911   -0.9974 H   0  0  0  0  0  0  0  0  0 61  0  0
   -2.7128    0.6679   -1.4458 H   0  0  0  0  0  0  0  0  0 62  0  0
  1  2  1  0
  2  3  1  0
  3  4  1  0
  4  5  1  0
  5  6  1  0
  6  7  2  0
  6  8  1  0
  8  9  1  0
  8 10  1  0
 10 11  1  0
 10 12  1  0
 12 13  2  0
 12 14  1  0
 14 15  1  0
 15 16  4  0
 16 17  1  0
 16 18  4  0
 18 19  4  0
 19 20  4  0
 20 21  4  0
 21 22  1  0
 22 23  1  0
 23 24  1  0
 23 25  1  0
 23 26  1  0
 26 27  1  0
 26 28  1  0
 26 29  1  0
 29 30  1  0
 30 31  1  0
 30 32  1  0
 30 33  1  0
 29 34  1  0
 34 35  1  0
 34 36  1  0
 34 37  1  0
 37 38  1  0
 37 39  1  0
 21 40  4  0
 40 41  1  0
 40 42  4  0
 42 43  1  0
 43 44  1  0
 43 45  1  0
 43 46  1  0
 19 47  4  0
 47 48  1  0
 47 49  4  0
 49 50  1  0
 14 51  1  0
 10 52  1  0
  8 53  1  0
  5 54  1  0
  4 55  1  0
  4 56  1  0
  3 57  1  0
  3 58  1  0
  2 59  1  0
  2 60  1  0
  1 61  1  0
  1 62  1  0
  1 63  1  0
 49 15  4  0
 42 18  4  0
 37 22  1  0
M  END
>  <sample_id>  (149)
train::CCCCNC(=O)CCC(=O)Nc1ccc2nc(N3CCN(C)CC3)cc(C)c2c1__gen0001

>  <partition>  (149)
BAT_EXTERNAL_CONFIRM

>  <method>  (149)
BA_seed193

>  <candidate>  (149)
primary

$$$$
train::CCCCNC(=O)CCC(=O)Nc1ccc2nc(N3CCN(C)CC3)cc(C)c2c1__gen0002
     RDKit          3D

 63 65  0  0  0  0  0  0  0  0999 V2000
    1.5603    3.0336   -0.3929 C   0  0  0  0  0  0  0  0  0  0  0  0
    1.7197    3.8487    0.8768 C   0  0  0  0  0  0  0  0  0  1  0  0
    2.8320    3.3161    1.7679 C   0  0  0  0  0  0  0  0  0  2  0  0
    2.9858    4.1244    3.0543 C   0  0  0  0  0  0  0  0  0  3  0  0
    1.8513    3.9604    3.9419 N   0  0  0  0  0  0  0  0  0  4  0  0
    0.8908    4.8933    4.0731 C   0  0  0  0  0  0  0  0  0  5  0  0
    0.9616    6.0048    3.6104 O   0  0  0  0  0  0  0  0  0  6  0  0
   -0.3033    4.3979    4.8927 C   0  0  0  0  0  0  0  0  0  7  0  0
    0.0193    3.6994    5.6618 H   0  0  0  0  0  0  0  0  0  8  0  0
   -1.3071    3.7110    3.9676 C   0  0  0  0  0  0  0  0  0  9  0  0
   -2.2185    3.4854    4.5130 H   0  0  0  0  0  0  0  0  0 10  0  0
   -0.7454    2.3871    3.4336 C   0  0  0  0  0  0  0  0  0 11  0  0
    0.0521    1.7225    4.0605 O   0  0  0  0  0  0  0  0  0 12  0  0
   -1.2204    2.0471    2.2139 N   0  0  0  0  0  0  0  0  0 13  0  0
   -0.8485    0.9826    1.3843 C   0  0  0  0  0  0  0  0  0 14  0  0
   -1.4301    0.9181    0.1302 C   0  0  0  0  0  0  0  0  0 15  0  0
   -2.1468    1.6661   -0.1663 H   0  0  0  0  0  0  0  0  0 49  0  0
   -1.0776   -0.1105   -0.7593 C   0  0  0  0  0  0  0  0  0 16  0  0
   -0.1288   -1.0865   -0.3527 C   0  0  0  0  0  0  0  0  0 17  0  0
    0.2339   -2.0978   -1.1470 N   0  0  0  0  0  0  0  0  0 18  0  0
   -0.2796   -2.2029   -2.3595 C   0  0  0  0  0  0  0  0  0 19  0  0
    0.1974   -3.2221   -3.1464 N   0  0  0  0  0  0  0  0  0 20  0  0
   -0.5745   -3.8393   -4.1978 C   0  0  0  0  0  0  0  0  0 21  0  0
    0.1310   -4.1952   -4.9550 H   0  0  0  0  0  0  0  0  0 22  0  0
   -1.2773   -3.1442   -4.6517 H   0  0  0  0  0  0  0  0  0 37  0  0
   -1.3390   -5.0451   -3.6295 C   0  0  0  0  0  0  0  0  0 23  0  0
   -2.0513   -4.6871   -2.8642 H   0  0  0  0  0  0  0  0  0 35  0  0
   -1.8837   -5.5510   -4.4367 H   0  0  0  0  0  0  0  0  0 36  0  0
   -0.3837   -5.9948   -3.0755 N   0  0  0  0  0  0  0  0  0 24  0  0
   -1.0347   -7.2058   -2.6171 C   0  0  0  0  0  0  0  0  0 25  0  0
   -1.7621   -7.0080   -1.8223 H   0  0  0  0  0  0  0  0  0 26  0  0
   -1.5538   -7.6614   -3.4641 H   0  0  0  0  0  0  0  0  0 27  0  0
   -0.2886   -7.8973   -2.2417 H   0  0  0  0  0  0  0  0  0 28  0  0
    0.3842   -5.3630   -2.0085 C   0  0  0  0  0  0  0  0  0 29  0  0
    1.0969   -6.0953   -1.6244 H   0  0  0  0  0  0  0  0  0 33  0  0
   -0.2476   -5.0194   -1.1793 H   0  0  0  0  0  0  0  0  0 34  0  0
    1.1362   -4.1569   -2.5776 C   0  0  0  0  0  0  0  0  0 30  0  0
    1.6944   -3.6514   -1.7885 H   0  0  0  0  0  0  0  0  0 31  0  0
    1.8120   -4.4850   -3.3708 H   0  0  0  0  0  0  0  0  0 32  0  0
   -1.2093   -1.2642   -2.8644 C   0  0  0  0  0  0  0  0  0 38  0  0
   -1.6048   -1.3570   -3.8623 H   0  0  0  0  0  0  0  0  0 44  0  0
   -1.6269   -0.2153   -2.0738 C   0  0  0  0  0  0  0  0  0 39  0  0
   -2.6270    0.7717   -2.5924 C   0  0  0  0  0  0  0  0  0 40  0  0
   -2.9252    0.5128   -3.5948 H   0  0  0  0  0  0  0  0  0 41  0  0
   -3.5046    0.7918   -1.9376 H   0  0  0  0  0  0  0  0  0 42  0  0
   -2.1947    1.7756   -2.5845 H   0  0  0  0  0  0  0  0  0 43  0  0
    0.4250   -1.0078    0.9334 C   0  0  0  0  0  0  0  0  0 45  0  0
    1.1363   -1.7654    1.2109 H   0  0  0  0  0  0  0  0  0 48  0  0
    0.0793    0.0079    1.7863 C   0  0  0  0  0  0  0  0  0 46  0  0
    0.5063    0.0573    2.7682 H   0  0  0  0  0  0  0  0  0 47  0  0
   -1.8797    2.6825    1.7838 H   0  0  0  0  0  0  0  0  0 50  0  0
   -1.5590    4.3787    3.1335 H   0  0  0  0  0  0  0  0  0 51  0  0
   -0.7766    5.2697    5.3677 H   0  0  0  0  0  0  0  0  0 52  0  0
    1.6627    3.0180    4.2589 H   0  0  0  0  0  0  0  0  0 53  0  0
    3.0548    5.1881    2.8119 H   0  0  0  0  0  0  0  0  0 54  0  0
    3.8928    3.8293    3.5841 H   0  0  0  0  0  0  0  0  0 55  0  0
    2.6243    2.2725    2.0225 H   0  0  0  0  0  0  0  0  0 56  0  0
    3.7744    3.3485    1.2167 H   0  0  0  0  0  0  0  0  0 57  0  0
    1.9309    4.8862    0.6163 H   0  0  0  0  0  0  0  0  0 58  0  0
    0.7732    3.8426    1.4185 H   0  0  0  0  0  0  0  0  0 59  0  0
    1.3206    1.9987   -0.1617 H   0  0  0  0  0  0  0  0  0 60  0  0
    0.7748    3.4461   -1.0224 H   0  0  0  0  0  0  0  0  0 61  0  0
    2.4960    3.0536   -0.9720 H   0  0  0  0  0  0  0  0  0 62  0  0
  1  2  1  0
  2  3  1  0
  3  4  1  0
  4  5  1  0
  5  6  1  0
  6  7  2  0
  6  8  1  0
  8  9  1  0
  8 10  1  0
 10 11  1  0
 10 12  1  0
 12 13  2  0
 12 14  1  0
 14 15  1  0
 15 16  4  0
 16 17  1  0
 16 18  4  0
 18 19  4  0
 19 20  4  0
 20 21  4  0
 21 22  1  0
 22 23  1  0
 23 24  1  0
 23 25  1  0
 23 26  1  0
 26 27  1  0
 26 28  1  0
 26 29  1  0
 29 30  1  0
 30 31  1  0
 30 32  1  0
 30 33  1  0
 29 34  1  0
 34 35  1  0
 34 36  1  0
 34 37  1  0
 37 38  1  0
 37 39  1  0
 21 40  4  0
 40 41  1  0
 40 42  4  0
 42 43  1  0
 43 44  1  0
 43 45  1  0
 43 46  1  0
 19 47  4  0
 47 48  1  0
 47 49  4  0
 49 50  1  0
 14 51  1  0
 10 52  1  0
  8 53  1  0
  5 54  1  0
  4 55  1  0
  4 56  1  0
  3 57  1  0
  3 58  1  0
  2 59  1  0
  2 60  1  0
  1 61  1  0
  1 62  1  0
  1 63  1  0
 49 15  4  0
 42 18  4  0
 37 22  1  0
M  END
>  <sample_id>  (150)
train::CCCCNC(=O)CCC(=O)Nc1ccc2nc(N3CCN(C)CC3)cc(C)c2c1__gen0002

>  <partition>  (150)
BAT_EXTERNAL_CONFIRM

>  <method>  (150)
BA_seed193

>  <candidate>  (150)
primary

$$$$
train::Cc1cc(NCCCN)nc(-c2ccccc2O)n1__gen0000
     RDKit          3D

 37 38  0  0  0  0  0  0  0  0999 V2000
   -2.5521    2.1416   -2.7615 C   0  0  0  0  0  0  0  0  0  0  0  0
   -1.5393    1.5776   -1.8128 C   0  0  0  0  0  0  0  0  0  1  0  0
   -1.2324    0.2977   -1.9577 N   0  0  0  0  0  0  0  0  0  2  0  0
   -0.3492   -0.2382   -1.1088 C   0  0  0  0  0  0  0  0  0  3  0  0
   -0.0555   -1.6628   -1.2365 C   0  0  0  0  0  0  0  0  0 22  0  0
    0.8100   -2.2795   -0.3318 C   0  0  0  0  0  0  0  0  0 23  0  0
    1.2209   -1.6823    0.4700 H   0  0  0  0  0  0  0  0  0 33  0  0
    1.1316   -3.6183   -0.4416 C   0  0  0  0  0  0  0  0  0 24  0  0
    1.7935   -4.0782    0.2782 H   0  0  0  0  0  0  0  0  0 32  0  0
    0.5984   -4.3701   -1.4679 C   0  0  0  0  0  0  0  0  0 25  0  0
    0.8551   -5.4173   -1.5664 H   0  0  0  0  0  0  0  0  0 31  0  0
   -0.2481   -3.7878   -2.3870 C   0  0  0  0  0  0  0  0  0 26  0  0
   -0.6746   -4.3654   -3.1925 H   0  0  0  0  0  0  0  0  0 30  0  0
   -0.5828   -2.4362   -2.3005 C   0  0  0  0  0  0  0  0  0 27  0  0
   -1.4387   -1.9512   -3.1910 O   0  0  0  0  0  0  0  0  0 28  0  0
   -1.5801   -0.9941   -2.9756 H   0  0  0  0  0  0  0  0  0 29  0  0
    0.2800    0.4363   -0.1122 N   0  0  0  0  0  0  0  0  0  4  0  0
   -0.0087    1.7302   -0.0024 C   0  0  0  0  0  0  0  0  0  5  0  0
    0.6350    2.4429    0.9517 N   0  0  0  0  0  0  0  0  0  6  0  0
    0.3815    3.4150    1.0418 H   0  0  0  0  0  0  0  0  0  7  0  0
    1.7215    1.9557    1.7478 C   0  0  0  0  0  0  0  0  0  8  0  0
    1.3362    1.8132    3.2240 C   0  0  0  0  0  0  0  0  0  9  0  0
    2.2252    1.5001    3.7878 H   0  0  0  0  0  0  0  0  0 10  0  0
    0.2331    0.7722    3.4369 C   0  0  0  0  0  0  0  0  0 11  0  0
    0.5886   -0.5813    3.0449 N   0  0  0  0  0  0  0  0  0 12  0  0
    1.4821   -0.8350    3.4318 H   0  0  0  0  0  0  0  0  0 13  0  0
    0.6080   -0.6511    2.0233 H   0  0  0  0  0  0  0  0  0 14  0  0
   -0.6566    1.0668    2.8560 H   0  0  0  0  0  0  0  0  0 15  0  0
   -0.0410    0.7554    4.4972 H   0  0  0  0  0  0  0  0  0 16  0  0
    1.0117    2.7767    3.6002 H   0  0  0  0  0  0  0  0  0 17  0  0
    2.5701    2.6391    1.6753 H   0  0  0  0  0  0  0  0  0 18  0  0
    2.0057    0.9778    1.3346 H   0  0  0  0  0  0  0  0  0 19  0  0
   -0.9456    2.3643   -0.8410 C   0  0  0  0  0  0  0  0  0 20  0  0
   -1.1930    3.4078   -0.7158 H   0  0  0  0  0  0  0  0  0 21  0  0
   -2.1065    2.9610   -3.3354 H   0  0  0  0  0  0  0  0  0 34  0  0
   -3.3988    2.5448   -2.2127 H   0  0  0  0  0  0  0  0  0 35  0  0
   -2.8852    1.3725   -3.4504 H   0  0  0  0  0  0  0  0  0 36  0  0
  1  2  1  0
  2  3  4  0
  3  4  4  0
  4  5  1  0
  5  6  4  0
  6  7  1  0
  6  8  4  0
  8  9  1  0
  8 10  4  0
 10 11  1  0
 10 12  4  0
 12 13  1  0
 12 14  4  0
 14 15  1  0
 15 16  1  0
  4 17  4  0
 17 18  4  0
 18 19  1  0
 19 20  1  0
 19 21  1  0
 21 22  1  0
 22 23  1  0
 22 24  1  0
 24 25  1  0
 25 26  1  0
 25 27  1  0
 24 28  1  0
 24 29  1  0
 22 30  1  0
 21 31  1  0
 21 32  1  0
 18 33  4  0
 33 34  1  0
  1 35  1  0
  1 36  1  0
  1 37  1  0
 33  2  4  0
 14  5  4  0
M  END
>  <sample_id>  (151)
train::Cc1cc(NCCCN)nc(-c2ccccc2O)n1__gen0000

>  <partition>  (151)
BAT_EXTERNAL_CONFIRM

>  <method>  (151)
BA_seed193

>  <candidate>  (151)
primary

$$$$
train::Cc1cc(NCCCN)nc(-c2ccccc2O)n1__gen0001
     RDKit          3D

 37 38  0  0  0  0  0  0  0  0999 V2000
    4.1281    1.1039   -1.8301 C   0  0  0  0  0  0  0  0  0  0  0  0
    2.7962    0.5954   -1.3542 C   0  0  0  0  0  0  0  0  0  1  0  0
    1.9721    1.4898   -0.8289 N   0  0  0  0  0  0  0  0  0  2  0  0
    0.7918    1.0760   -0.3985 C   0  0  0  0  0  0  0  0  0  3  0  0
   -0.0683    2.0659    0.2339 C   0  0  0  0  0  0  0  0  0 22  0  0
    0.2895    3.4103    0.1504 C   0  0  0  0  0  0  0  0  0 23  0  0
    1.1764    3.6695   -0.4171 H   0  0  0  0  0  0  0  0  0 33  0  0
   -0.4673    4.4020    0.7592 C   0  0  0  0  0  0  0  0  0 24  0  0
   -0.1737    5.4401    0.6711 H   0  0  0  0  0  0  0  0  0 32  0  0
   -1.6001    4.0488    1.4811 C   0  0  0  0  0  0  0  0  0 25  0  0
   -2.1837    4.8135    1.9743 H   0  0  0  0  0  0  0  0  0 31  0  0
   -1.9510    2.7201    1.5997 C   0  0  0  0  0  0  0  0  0 26  0  0
   -2.8232    2.4289    2.1642 H   0  0  0  0  0  0  0  0  0 30  0  0
   -1.2038    1.7267    0.9881 C   0  0  0  0  0  0  0  0  0 27  0  0
   -1.5987    0.4420    1.1293 O   0  0  0  0  0  0  0  0  0 28  0  0
   -1.0282   -0.1141    0.5657 H   0  0  0  0  0  0  0  0  0 29  0  0
    0.3451   -0.1726   -0.4987 N   0  0  0  0  0  0  0  0  0  4  0  0
    1.1441   -1.0898   -1.0639 C   0  0  0  0  0  0  0  0  0  5  0  0
    0.6763   -2.3354   -1.2424 N   0  0  0  0  0  0  0  0  0  6  0  0
    1.3512   -3.0651   -1.4717 H   0  0  0  0  0  0  0  0  0  7  0  0
   -0.6301   -2.7489   -0.7902 C   0  0  0  0  0  0  0  0  0  8  0  0
   -0.6873   -3.0209    0.7184 C   0  0  0  0  0  0  0  0  0  9  0  0
   -0.0901   -3.8987    0.9651 H   0  0  0  0  0  0  0  0  0 10  0  0
   -2.1307   -3.2451    1.1985 C   0  0  0  0  0  0  0  0  0 11  0  0
   -2.8803   -2.0159    1.1104 N   0  0  0  0  0  0  0  0  0 12  0  0
   -3.7712   -2.0943    1.5863 H   0  0  0  0  0  0  0  0  0 13  0  0
   -3.0720   -1.7440    0.1593 H   0  0  0  0  0  0  0  0  0 14  0  0
   -2.1093   -3.5469    2.2408 H   0  0  0  0  0  0  0  0  0 15  0  0
   -2.5783   -4.0702    0.6224 H   0  0  0  0  0  0  0  0  0 16  0  0
   -0.2666   -2.1604    1.2442 H   0  0  0  0  0  0  0  0  0 17  0  0
   -1.3330   -1.9586   -1.0497 H   0  0  0  0  0  0  0  0  0 18  0  0
   -0.9140   -3.6600   -1.3367 H   0  0  0  0  0  0  0  0  0 19  0  0
    2.4362   -0.7325   -1.5064 C   0  0  0  0  0  0  0  0  0 20  0  0
    3.0915   -1.4650   -1.9278 H   0  0  0  0  0  0  0  0  0 21  0  0
    4.8303    0.2822   -1.9810 H   0  0  0  0  0  0  0  0  0 34  0  0
    4.5275    1.7946   -1.0945 H   0  0  0  0  0  0  0  0  0 35  0  0
    4.0048    1.6288   -2.7707 H   0  0  0  0  0  0  0  0  0 36  0  0
  1  2  1  0
  2  3  4  0
  3  4  4  0
  4  5  1  0
  5  6  4  0
  6  7  1  0
  6  8  4  0
  8  9  1  0
  8 10  4  0
 10 11  1  0
 10 12  4  0
 12 13  1  0
 12 14  4  0
 14 15  1  0
 15 16  1  0
  4 17  4  0
 17 18  4  0
 18 19  1  0
 19 20  1  0
 19 21  1  0
 21 22  1  0
 22 23  1  0
 22 24  1  0
 24 25  1  0
 25 26  1  0
 25 27  1  0
 24 28  1  0
 24 29  1  0
 22 30  1  0
 21 31  1  0
 21 32  1  0
 18 33  4  0
 33 34  1  0
  1 35  1  0
  1 36  1  0
  1 37  1  0
 33  2  4  0
 14  5  4  0
M  END
>  <sample_id>  (152)
train::Cc1cc(NCCCN)nc(-c2ccccc2O)n1__gen0001

>  <partition>  (152)
BAT_EXTERNAL_CONFIRM

>  <method>  (152)
BA_seed193

>  <candidate>  (152)
primary

$$$$
train::Cc1cc(NCCCN)nc(-c2ccccc2O)n1__gen0002
     RDKit          3D

 37 38  0  0  0  0  0  0  0  0999 V2000
   -0.1171    4.5257   -0.8841 C   0  0  0  0  0  0  0  0  0  0  0  0
    0.0173    3.0931   -0.4908 C   0  0  0  0  0  0  0  0  0  1  0  0
    0.3876    2.2442   -1.4512 N   0  0  0  0  0  0  0  0  0  2  0  0
    0.5169    0.9572   -1.1086 C   0  0  0  0  0  0  0  0  0  3  0  0
    0.9155    0.0471   -2.1985 C   0  0  0  0  0  0  0  0  0 22  0  0
    1.1622    0.5656   -3.4655 C   0  0  0  0  0  0  0  0  0 23  0  0
    1.0534    1.6276   -3.6189 H   0  0  0  0  0  0  0  0  0 33  0  0
    1.5390   -0.2592   -4.5063 C   0  0  0  0  0  0  0  0  0 24  0  0
    1.7254    0.1501   -5.4896 H   0  0  0  0  0  0  0  0  0 32  0  0
    1.6693   -1.6205   -4.2983 C   0  0  0  0  0  0  0  0  0 25  0  0
    1.9717   -2.2725   -5.1025 H   0  0  0  0  0  0  0  0  0 31  0  0
    1.4516   -2.1530   -3.0360 C   0  0  0  0  0  0  0  0  0 26  0  0
    1.5443   -3.2160   -2.8585 H   0  0  0  0  0  0  0  0  0 30  0  0
    1.0686   -1.3386   -1.9793 C   0  0  0  0  0  0  0  0  0 27  0  0
    0.8515   -1.9059   -0.7796 O   0  0  0  0  0  0  0  0  0 28  0  0
    0.6355   -1.1785   -0.1722 H   0  0  0  0  0  0  0  0  0 29  0  0
    0.3213    0.4639    0.0949 N   0  0  0  0  0  0  0  0  0  4  0  0
   -0.0403    1.2984    1.0781 C   0  0  0  0  0  0  0  0  0  5  0  0
   -0.2005    0.7955    2.3210 N   0  0  0  0  0  0  0  0  0  6  0  0
   -0.6280    1.4243    2.9936 H   0  0  0  0  0  0  0  0  0  7  0  0
   -0.2506   -0.6013    2.6231 C   0  0  0  0  0  0  0  0  0  8  0  0
   -1.6740   -1.1599    2.5327 C   0  0  0  0  0  0  0  0  0  9  0  0
   -2.2839   -0.6916    3.3126 H   0  0  0  0  0  0  0  0  0 10  0  0
   -1.6947   -2.6740    2.6970 C   0  0  0  0  0  0  0  0  0 11  0  0
   -0.9505   -3.0837    3.8798 N   0  0  0  0  0  0  0  0  0 12  0  0
   -0.9987   -4.0771    4.0231 H   0  0  0  0  0  0  0  0  0 13  0  0
   -1.3567   -2.6593    4.7200 H   0  0  0  0  0  0  0  0  0 14  0  0
   -2.7388   -3.0153    2.7239 H   0  0  0  0  0  0  0  0  0 15  0  0
   -1.1926   -3.1453    1.8491 H   0  0  0  0  0  0  0  0  0 16  0  0
   -2.1001   -0.9106    1.5593 H   0  0  0  0  0  0  0  0  0 17  0  0
    0.3937   -1.1381    1.9233 H   0  0  0  0  0  0  0  0  0 18  0  0
    0.1395   -0.7553    3.6414 H   0  0  0  0  0  0  0  0  0 19  0  0
   -0.2214    2.6669    0.8095 C   0  0  0  0  0  0  0  0  0 20  0  0
   -0.5154    3.3518    1.5841 H   0  0  0  0  0  0  0  0  0 21  0  0
    0.7993    5.0589   -0.6068 H   0  0  0  0  0  0  0  0  0 34  0  0
   -0.2473    4.5893   -1.9579 H   0  0  0  0  0  0  0  0  0 35  0  0
   -0.9530    4.9957   -0.3620 H   0  0  0  0  0  0  0  0  0 36  0  0
  1  2  1  0
  2  3  4  0
  3  4  4  0
  4  5  1  0
  5  6  4  0
  6  7  1  0
  6  8  4  0
  8  9  1  0
  8 10  4  0
 10 11  1  0
 10 12  4  0
 12 13  1  0
 12 14  4  0
 14 15  1  0
 15 16  1  0
  4 17  4  0
 17 18  4  0
 18 19  1  0
 19 20  1  0
 19 21  1  0
 21 22  1  0
 22 23  1  0
 22 24  1  0
 24 25  1  0
 25 26  1  0
 25 27  1  0
 24 28  1  0
 24 29  1  0
 22 30  1  0
 21 31  1  0
 21 32  1  0
 18 33  4  0
 33 34  1  0
  1 35  1  0
  1 36  1  0
  1 37  1  0
 33  2  4  0
 14  5  4  0
M  END
>  <sample_id>  (153)
train::Cc1cc(NCCCN)nc(-c2ccccc2O)n1__gen0002

>  <partition>  (153)
BAT_EXTERNAL_CONFIRM

>  <method>  (153)
BA_seed193

>  <candidate>  (153)
primary

$$$$
train::O=C(NN1CC(C(=O)OCc2ccccc2F)CC1=O)c1ccccc1__gen0000
     RDKit          3D

 43 45  0  0  0  0  0  0  0  0999 V2000
    0.4601    1.1454   -1.9684 O   0  0  0  0  0  0  0  0  0  0  0  0
    0.0685    1.7757   -1.0142 C   0  0  0  0  0  0  0  0  0  1  0  0
    0.8605    2.0773    0.0681 N   0  0  0  0  0  0  0  0  0  2  0  0
    2.0343    1.4369    0.3574 N   0  0  0  0  0  0  0  0  0  3  0  0
    2.1422    0.7559    1.5364 C   0  0  0  0  0  0  0  0  0  4  0  0
    1.3418    0.8400    2.4438 O   0  0  0  0  0  0  0  0  0  5  0  0
    3.4025   -0.0838    1.4479 C   0  0  0  0  0  0  0  0  0  6  0  0
    3.2725   -1.0345    1.9627 H   0  0  0  0  0  0  0  0  0  7  0  0
    4.2152    0.4590    1.9399 H   0  0  0  0  0  0  0  0  0  8  0  0
    3.6350   -0.2113   -0.0601 C   0  0  1  0  0  0  0  0  0  9  0  0
    2.8477   -1.4099   -0.5856 C   0  0  0  0  0  0  0  0  0 10  0  0
    3.3432   -2.4667   -0.8939 O   0  0  0  0  0  0  0  0  0 11  0  0
    1.5643   -1.1202   -0.6306 O   0  0  0  0  0  0  0  0  0 12  0  0
    0.6431   -2.0939   -1.1851 C   0  0  0  0  0  0  0  0  0 13  0  0
   -0.2940   -2.5527   -0.1064 C   0  0  0  0  0  0  0  0  0 14  0  0
    0.1860   -3.1348    1.0519 C   0  0  0  0  0  0  0  0  0 15  0  0
    1.2470   -3.3107    1.1463 H   0  0  0  0  0  0  0  0  0 24  0  0
   -0.6755   -3.5247    2.0597 C   0  0  0  0  0  0  0  0  0 16  0  0
   -0.2802   -3.9796    2.9627 H   0  0  0  0  0  0  0  0  0 23  0  0
   -2.0395   -3.3101    1.9374 C   0  0  0  0  0  0  0  0  0 17  0  0
   -2.7057   -3.6003    2.7267 H   0  0  0  0  0  0  0  0  0 22  0  0
   -2.5362   -2.7042    0.8036 C   0  0  0  0  0  0  0  0  0 18  0  0
   -3.6032   -2.5447    0.6699 H   0  0  0  0  0  0  0  0  0 21  0  0
   -1.6683   -2.3431   -0.2038 C   0  0  0  0  0  0  0  0  0 19  0  0
   -2.1734   -1.7627   -1.3153 F   0  0  0  0  0  0  0  0  0 20  0  0
    1.2157   -2.9331   -1.5934 H   0  0  0  0  0  0  0  0  0 25  0  0
    0.1001   -1.5720   -1.9847 H   0  0  0  0  0  0  0  0  0 26  0  0
    4.6855   -0.3566   -0.3304 H   0  0  0  0  0  0  0  0  0 27  0  0
    3.0664    1.0963   -0.5976 C   0  0  0  0  0  0  0  0  0 28  0  0
    2.6349    1.0194   -1.6030 H   0  0  0  0  0  0  0  0  0 29  0  0
    3.8389    1.8765   -0.6130 H   0  0  0  0  0  0  0  0  0 30  0  0
    0.3957    2.3788    0.9241 H   0  0  0  0  0  0  0  0  0 31  0  0
   -1.3134    2.3190   -0.9132 C   0  0  0  0  0  0  0  0  0 32  0  0
   -1.6214    3.4971   -0.2438 C   0  0  0  0  0  0  0  0  0 33  0  0
   -0.8283    4.0811    0.2113 H   0  0  0  0  0  0  0  0  0 42  0  0
   -2.9294    3.9329   -0.1864 C   0  0  0  0  0  0  0  0  0 34  0  0
   -3.1776    4.8502    0.3240 H   0  0  0  0  0  0  0  0  0 41  0  0
   -3.9425    3.1968   -0.7944 C   0  0  0  0  0  0  0  0  0 35  0  0
   -4.9719    3.5482   -0.7437 H   0  0  0  0  0  0  0  0  0 40  0  0
   -3.6329    2.0269   -1.4673 C   0  0  0  0  0  0  0  0  0 36  0  0
   -4.4195    1.4566   -1.9404 H   0  0  0  0  0  0  0  0  0 39  0  0
   -2.3284    1.5854   -1.5255 C   0  0  0  0  0  0  0  0  0 37  0  0
   -2.0597    0.6942   -2.0736 H   0  0  0  0  0  0  0  0  0 38  0  0
  1  2  2  0
  2  3  1  0
  3  4  1  0
  4  5  1  0
  5  6  2  0
  5  7  1  0
  7  8  1  0
  7  9  1  0
  7 10  1  0
 10 11  1  0
 11 12  2  0
 11 13  1  0
 13 14  1  0
 14 15  1  0
 15 16  4  0
 16 17  1  0
 16 18  4  0
 18 19  1  0
 18 20  4  0
 20 21  1  0
 20 22  4  0
 22 23  1  0
 22 24  4  0
 24 25  1  0
 14 26  1  0
 14 27  1  0
 10 28  1  1
 10 29  1  0
 29 30  1  0
 29 31  1  0
  3 32  1  0
  2 33  1  0
 33 34  4  0
 34 35  1  0
 34 36  4  0
 36 37  1  0
 36 38  4  0
 38 39  1  0
 38 40  4  0
 40 41  1  0
 40 42  4  0
 42 43  1  0
 29  4  1  0
 42 33  4  0
 24 15  4  0
M  END
>  <sample_id>  (154)
train::O=C(NN1CC(C(=O)OCc2ccccc2F)CC1=O)c1ccccc1__gen0000

>  <partition>  (154)
BAT_EXTERNAL_CONFIRM

>  <method>  (154)
BA_seed193

>  <candidate>  (154)
primary

$$$$
train::O=C(NN1CC(C(=O)OCc2ccccc2F)CC1=O)c1ccccc1__gen0001
     RDKit          3D

 43 45  0  0  0  0  0  0  0  0999 V2000
    0.6644    0.0660    2.1314 O   0  0  0  0  0  0  0  0  0  0  0  0
    1.2347    0.3138    1.0839 C   0  0  0  0  0  0  0  0  0  1  0  0
    1.0689    1.4692    0.3963 N   0  0  0  0  0  0  0  0  0  2  0  0
    0.1819    2.4833    0.6379 N   0  0  0  0  0  0  0  0  0  3  0  0
   -0.2425    3.2603   -0.4036 C   0  0  0  0  0  0  0  0  0  4  0  0
    0.3555    3.3651   -1.4423 O   0  0  0  0  0  0  0  0  0  5  0  0
   -1.5177    3.9289    0.0458 C   0  0  0  0  0  0  0  0  0  6  0  0
   -2.2270    4.0153   -0.7723 H   0  0  0  0  0  0  0  0  0  7  0  0
   -1.3088    4.9310    0.4381 H   0  0  0  0  0  0  0  0  0  8  0  0
   -2.0133    2.9919    1.1457 C   0  0  1  0  0  0  0  0  0  9  0  0
   -2.7220    1.8150    0.4738 C   0  0  0  0  0  0  0  0  0 10  0  0
   -3.3513    1.9369   -0.5402 O   0  0  0  0  0  0  0  0  0 11  0  0
   -2.5301    0.6771    1.1200 O   0  0  0  0  0  0  0  0  0 12  0  0
   -3.0227   -0.5322    0.5221 C   0  0  0  0  0  0  0  0  0 13  0  0
   -1.9732   -1.2489   -0.2743 C   0  0  0  0  0  0  0  0  0 14  0  0
   -1.1981   -0.5840   -1.2131 C   0  0  0  0  0  0  0  0  0 15  0  0
   -1.3651    0.4599   -1.3923 H   0  0  0  0  0  0  0  0  0 24  0  0
   -0.2349   -1.2595   -1.9329 C   0  0  0  0  0  0  0  0  0 16  0  0
    0.3571   -0.7310   -2.6676 H   0  0  0  0  0  0  0  0  0 23  0  0
   -0.0160   -2.6169   -1.7249 C   0  0  0  0  0  0  0  0  0 17  0  0
    0.7316   -3.1422   -2.2900 H   0  0  0  0  0  0  0  0  0 22  0  0
   -0.7825   -3.2913   -0.7912 C   0  0  0  0  0  0  0  0  0 18  0  0
   -0.6412   -4.3409   -0.6021 H   0  0  0  0  0  0  0  0  0 21  0  0
   -1.7410   -2.6045   -0.0770 C   0  0  0  0  0  0  0  0  0 19  0  0
   -2.4886   -3.2718    0.8246 F   0  0  0  0  0  0  0  0  0 20  0  0
   -3.8840   -0.2786   -0.1078 H   0  0  0  0  0  0  0  0  0 25  0  0
   -3.3643   -1.1533    1.3635 H   0  0  0  0  0  0  0  0  0 26  0  0
   -2.7029    3.4350    1.8677 H   0  0  0  0  0  0  0  0  0 27  0  0
   -0.6908    2.5551    1.8064 C   0  0  0  0  0  0  0  0  0 28  0  0
   -0.3331    3.3398    2.4775 H   0  0  0  0  0  0  0  0  0 29  0  0
   -0.7432    1.6072    2.3257 H   0  0  0  0  0  0  0  0  0 30  0  0
    1.5367    1.5846   -0.5116 H   0  0  0  0  0  0  0  0  0 31  0  0
    2.1823   -0.6444    0.4632 C   0  0  0  0  0  0  0  0  0 32  0  0
    1.9739   -1.9974    0.7037 C   0  0  0  0  0  0  0  0  0 33  0  0
    1.1527   -2.2877    1.3303 H   0  0  0  0  0  0  0  0  0 42  0  0
    2.8168   -2.9365    0.1454 C   0  0  0  0  0  0  0  0  0 34  0  0
    2.6434   -3.9863    0.3242 H   0  0  0  0  0  0  0  0  0 41  0  0
    3.8763   -2.5460   -0.6491 C   0  0  0  0  0  0  0  0  0 35  0  0
    4.5408   -3.2729   -1.0846 H   0  0  0  0  0  0  0  0  0 40  0  0
    4.1014   -1.1955   -0.8738 C   0  0  0  0  0  0  0  0  0 36  0  0
    4.9453   -0.8777   -1.4725 H   0  0  0  0  0  0  0  0  0 39  0  0
    3.2690   -0.2486   -0.3170 C   0  0  0  0  0  0  0  0  0 37  0  0
    3.4616    0.8128   -0.4873 H   0  0  0  0  0  0  0  0  0 38  0  0
  1  2  2  0
  2  3  1  0
  3  4  1  0
  4  5  1  0
  5  6  2  0
  5  7  1  0
  7  8  1  0
  7  9  1  0
  7 10  1  0
 10 11  1  0
 11 12  2  0
 11 13  1  0
 13 14  1  0
 14 15  1  0
 15 16  4  0
 16 17  1  0
 16 18  4  0
 18 19  1  0
 18 20  4  0
 20 21  1  0
 20 22  4  0
 22 23  1  0
 22 24  4  0
 24 25  1  0
 14 26  1  0
 14 27  1  0
 10 28  1  1
 10 29  1  0
 29 30  1  0
 29 31  1  0
  3 32  1  0
  2 33  1  0
 33 34  4  0
 34 35  1  0
 34 36  4  0
 36 37  1  0
 36 38  4  0
 38 39  1  0
 38 40  4  0
 40 41  1  0
 40 42  4  0
 42 43  1  0
 29  4  1  0
 42 33  4  0
 24 15  4  0
M  END
>  <sample_id>  (155)
train::O=C(NN1CC(C(=O)OCc2ccccc2F)CC1=O)c1ccccc1__gen0001

>  <partition>  (155)
BAT_EXTERNAL_CONFIRM

>  <method>  (155)
BA_seed193

>  <candidate>  (155)
primary

$$$$
train::O=C(NN1CC(C(=O)OCc2ccccc2F)CC1=O)c1ccccc1__gen0002
     RDKit          3D

 43 45  0  0  0  0  0  0  0  0999 V2000
    0.3309    0.3347    0.1290 O   0  0  0  0  0  0  0  0  0  0  0  0
   -0.2228    0.4419    1.2062 C   0  0  0  0  0  0  0  0  0  1  0  0
   -0.4141   -0.6142    2.0405 N   0  0  0  0  0  0  0  0  0  2  0  0
   -0.2354   -1.9192    1.6196 N   0  0  0  0  0  0  0  0  0  3  0  0
   -1.3067   -2.7639    1.5325 C   0  0  0  0  0  0  0  0  0  4  0  0
   -2.3737   -2.5525    2.0466 O   0  0  0  0  0  0  0  0  0  5  0  0
   -0.8451   -3.9761    0.7462 C   0  0  0  0  0  0  0  0  0  6  0  0
   -0.6334   -4.7974    1.4340 H   0  0  0  0  0  0  0  0  0  7  0  0
   -1.6317   -4.2861    0.0566 H   0  0  0  0  0  0  0  0  0  8  0  0
    0.4119   -3.4885    0.0152 C   0  0  1  0  0  0  0  0  0  9  0  0
    0.0339   -2.8255   -1.3107 C   0  0  0  0  0  0  0  0  0 10  0  0
   -1.0907   -2.6044   -1.6659 O   0  0  0  0  0  0  0  0  0 11  0  0
    1.1364   -2.5113   -1.9871 O   0  0  0  0  0  0  0  0  0 12  0  0
    0.9778   -1.7119   -3.1554 C   0  0  0  0  0  0  0  0  0 13  0  0
    1.1568   -0.2481   -2.7970 C   0  0  0  0  0  0  0  0  0 14  0  0
    2.3505    0.1844   -2.2303 C   0  0  0  0  0  0  0  0  0 15  0  0
    3.1527   -0.5331   -2.1069 H   0  0  0  0  0  0  0  0  0 24  0  0
    2.5066    1.4956   -1.8088 C   0  0  0  0  0  0  0  0  0 16  0  0
    3.4360    1.8095   -1.3757 H   0  0  0  0  0  0  0  0  0 23  0  0
    1.4657    2.3928   -1.9601 C   0  0  0  0  0  0  0  0  0 17  0  0
    1.5747    3.4146   -1.6236 H   0  0  0  0  0  0  0  0  0 22  0  0
    0.2749    1.9903   -2.5335 C   0  0  0  0  0  0  0  0  0 18  0  0
   -0.5486    2.6755   -2.6581 H   0  0  0  0  0  0  0  0  0 21  0  0
    0.1329    0.6760   -2.9483 C   0  0  0  0  0  0  0  0  0 19  0  0
   -1.0360    0.3129   -3.5166 F   0  0  0  0  0  0  0  0  0 20  0  0
   -0.0157   -1.8873   -3.5918 H   0  0  0  0  0  0  0  0  0 25  0  0
    1.7566   -2.0266   -3.8523 H   0  0  0  0  0  0  0  0  0 26  0  0
    1.1534   -4.2708   -0.1670 H   0  0  0  0  0  0  0  0  0 27  0  0
    0.9575   -2.3977    0.9400 C   0  0  0  0  0  0  0  0  0 28  0  0
    1.4338   -1.5851    0.3870 H   0  0  0  0  0  0  0  0  0 29  0  0
    1.6590   -2.8018    1.6725 H   0  0  0  0  0  0  0  0  0 30  0  0
   -1.1023   -0.5624    2.7948 H   0  0  0  0  0  0  0  0  0 31  0  0
   -0.7499    1.7284    1.7284 C   0  0  0  0  0  0  0  0  0 32  0  0
   -0.6409    2.0814    3.0738 C   0  0  0  0  0  0  0  0  0 33  0  0
   -0.1539    1.4100    3.7695 H   0  0  0  0  0  0  0  0  0 42  0  0
   -1.1368    3.2969    3.5091 C   0  0  0  0  0  0  0  0  0 34  0  0
   -1.0513    3.5785    4.5489 H   0  0  0  0  0  0  0  0  0 41  0  0
   -1.7333    4.1669    2.6087 C   0  0  0  0  0  0  0  0  0 35  0  0
   -2.1183    5.1160    2.9622 H   0  0  0  0  0  0  0  0  0 40  0  0
   -1.8328    3.8247    1.2695 C   0  0  0  0  0  0  0  0  0 36  0  0
   -2.2944    4.4955    0.5724 H   0  0  0  0  0  0  0  0  0 39  0  0
   -1.3359    2.6186    0.8305 C   0  0  0  0  0  0  0  0  0 37  0  0
   -1.3983    2.3189   -0.2047 H   0  0  0  0  0  0  0  0  0 38  0  0
  1  2  2  0
  2  3  1  0
  3  4  1  0
  4  5  1  0
  5  6  2  0
  5  7  1  0
  7  8  1  0
  7  9  1  0
  7 10  1  0
 10 11  1  0
 11 12  2  0
 11 13  1  0
 13 14  1  0
 14 15  1  0
 15 16  4  0
 16 17  1  0
 16 18  4  0
 18 19  1  0
 18 20  4  0
 20 21  1  0
 20 22  4  0
 22 23  1  0
 22 24  4  0
 24 25  1  0
 14 26  1  0
 14 27  1  0
 10 28  1  6
 10 29  1  0
 29 30  1  0
 29 31  1  0
  3 32  1  0
  2 33  1  0
 33 34  4  0
 34 35  1  0
 34 36  4  0
 36 37  1  0
 36 38  4  0
 38 39  1  0
 38 40  4  0
 40 41  1  0
 40 42  4  0
 42 43  1  0
 29  4  1  0
 42 33  4  0
 24 15  4  0
M  END
>  <sample_id>  (156)
train::O=C(NN1CC(C(=O)OCc2ccccc2F)CC1=O)c1ccccc1__gen0002

>  <partition>  (156)
BAT_EXTERNAL_CONFIRM

>  <method>  (156)
BA_seed193

>  <candidate>  (156)
primary

$$$$
train::CC1(C(=O)NC(=S)N(CCC#N)c2ccccc2)CC1(Cl)Cl__gen0000
     RDKit          3D

 37 38  0  0  0  0  0  0  0  0999 V2000
    1.7761    0.1344    3.2449 C   0  0  0  0  0  0  0  0  0  0  0  0
    1.9761    0.5540    1.7965 C   0  0  1  0  0  0  0  0  0  1  0  0
    0.8270    0.3091    0.8410 C   0  0  0  0  0  0  0  0  0  8  0  0
    1.0068    0.0882   -0.3427 O   0  0  0  0  0  0  0  0  0  9  0  0
   -0.4169    0.3548    1.4226 N   0  0  0  0  0  0  0  0  0 10  0  0
   -1.5591   -0.2433    0.9526 C   0  0  0  0  0  0  0  0  0 11  0  0
   -1.6561   -0.6094   -0.3325 N   0  0  0  0  0  0  0  0  0 12  0  0
   -1.3725    0.2484   -1.4043 C   0  0  0  0  0  0  0  0  0 13  0  0
   -1.6569    1.6140   -1.2687 C   0  0  0  0  0  0  0  0  0 14  0  0
   -2.0707    1.9667   -0.3329 H   0  0  0  0  0  0  0  0  0 23  0  0
   -1.4187    2.4773   -2.3099 C   0  0  0  0  0  0  0  0  0 15  0  0
   -1.6346    3.5329   -2.1814 H   0  0  0  0  0  0  0  0  0 22  0  0
   -0.9028    2.0111   -3.5010 C   0  0  0  0  0  0  0  0  0 16  0  0
   -0.7241    2.7072   -4.3154 H   0  0  0  0  0  0  0  0  0 21  0  0
   -0.6463    0.6671   -3.6639 C   0  0  0  0  0  0  0  0  0 17  0  0
   -0.2394    0.3020   -4.5854 H   0  0  0  0  0  0  0  0  0 20  0  0
   -0.8849   -0.2167   -2.6116 C   0  0  0  0  0  0  0  0  0 18  0  0
   -0.6281   -1.2630   -2.7420 H   0  0  0  0  0  0  0  0  0 19  0  0
   -2.2266   -1.9241   -0.6055 C   0  0  0  0  0  0  0  0  0 24  0  0
   -2.5767   -1.9571   -1.6346 H   0  0  0  0  0  0  0  0  0 25  0  0
   -3.0474   -2.1020    0.0807 H   0  0  0  0  0  0  0  0  0 26  0  0
   -1.1434   -3.0361   -0.3924 C   0  0  0  0  0  0  0  0  0 27  0  0
   -0.5586   -2.9064    0.9288 C   0  0  0  0  0  0  0  0  0 28  0  0
   -0.0775   -2.7730    1.9496 N   0  0  0  0  0  0  0  0  0 29  0  0
   -0.3359   -2.9219   -1.0940 H   0  0  0  0  0  0  0  0  0 30  0  0
   -1.6091   -4.0143   -0.4921 H   0  0  0  0  0  0  0  0  0 31  0  0
   -2.7239   -0.6409    2.0662 S   0  0  0  0  0  0  0  0  0 32  0  0
   -0.4346    0.4866    2.4236 H   0  0  0  0  0  0  0  0  0 33  0  0
    2.8963    1.6851    1.3999 C   0  0  2  0  0  0  0  0  0  2  0  0
    3.6259    2.6017    2.6976 Cl  0  0  0  0  0  0  0  0  0  6  0  0
    2.4399    2.7125    0.0230 Cl  0  0  0  0  0  0  0  0  0  7  0  0
    3.3400    0.2669    1.1892 C   0  0  0  0  0  0  0  0  0  3  0  0
    4.1152   -0.1188    1.8272 H   0  0  0  0  0  0  0  0  0  4  0  0
    3.3471   -0.0751    0.1629 H   0  0  0  0  0  0  0  0  0  5  0  0
    1.0444    0.7634    3.7423 H   0  0  0  0  0  0  0  0  0 34  0  0
    1.4305   -0.8977    3.2856 H   0  0  0  0  0  0  0  0  0 35  0  0
    2.7197    0.2165    3.7760 H   0  0  0  0  0  0  0  0  0 36  0  0
  2  1  1  1
  2  3  1  0
  3  4  2  0
  3  5  1  0
  5  6  1  0
  6  7  1  0
  7  8  1  0
  8  9  4  0
  9 10  1  0
  9 11  4  0
 11 12  1  0
 11 13  4  0
 13 14  1  0
 13 15  4  0
 15 16  1  0
 15 17  4  0
 17 18  1  0
  7 19  1  0
 19 20  1  0
 19 21  1  0
 19 22  1  0
 22 23  1  0
 23 24  3  0
 22 25  1  0
 22 26  1  0
  6 27  2  0
  5 28  1  0
  2 29  1  0
 29 30  1  1
 29 31  1  0
 29 32  1  0
 32 33  1  0
 32 34  1  0
  1 35  1  0
  1 36  1  0
  1 37  1  0
 32  2  1  0
 17  8  4  0
M  END
>  <sample_id>  (157)
train::CC1(C(=O)NC(=S)N(CCC#N)c2ccccc2)CC1(Cl)Cl__gen0000

>  <partition>  (157)
BAT_EXTERNAL_CONFIRM

>  <method>  (157)
BA_seed193

>  <candidate>  (157)
primary

$$$$
train::CC1(C(=O)NC(=S)N(CCC#N)c2ccccc2)CC1(Cl)Cl__gen0001
     RDKit          3D

 37 38  0  0  0  0  0  0  0  0999 V2000
    2.4668   -2.8251   -0.4020 C   0  0  0  0  0  0  0  0  0  0  0  0
    2.0594   -1.4489   -0.9155 C   0  0  2  0  0  0  0  0  0  1  0  0
    1.0613   -0.6702   -0.1054 C   0  0  0  0  0  0  0  0  0  8  0  0
    1.0929    0.5362   -0.0203 O   0  0  0  0  0  0  0  0  0  9  0  0
    0.1137   -1.4536    0.5209 N   0  0  0  0  0  0  0  0  0 10  0  0
   -0.7740   -1.0005    1.4767 C   0  0  0  0  0  0  0  0  0 11  0  0
   -1.3143    0.2396    1.3286 N   0  0  0  0  0  0  0  0  0 12  0  0
   -1.5585    0.8026    0.0673 C   0  0  0  0  0  0  0  0  0 13  0  0
   -1.4361    2.1689   -0.1466 C   0  0  0  0  0  0  0  0  0 14  0  0
   -1.0968    2.8302    0.6377 H   0  0  0  0  0  0  0  0  0 23  0  0
   -1.7307    2.6933   -1.3954 C   0  0  0  0  0  0  0  0  0 15  0  0
   -1.6093    3.7625   -1.5535 H   0  0  0  0  0  0  0  0  0 22  0  0
   -2.1391    1.8755   -2.4296 C   0  0  0  0  0  0  0  0  0 16  0  0
   -2.3649    2.2975   -3.4053 H   0  0  0  0  0  0  0  0  0 21  0  0
   -2.2816    0.5260   -2.2037 C   0  0  0  0  0  0  0  0  0 17  0  0
   -2.6252   -0.1292   -3.0020 H   0  0  0  0  0  0  0  0  0 20  0  0
   -1.9997   -0.0202   -0.9688 C   0  0  0  0  0  0  0  0  0 18  0  0
   -2.1178   -1.0796   -0.8071 H   0  0  0  0  0  0  0  0  0 19  0  0
   -1.7165    0.9449    2.5295 C   0  0  0  0  0  0  0  0  0 24  0  0
   -2.4969    1.6650    2.2564 H   0  0  0  0  0  0  0  0  0 25  0  0
   -2.1332    0.2179    3.2310 H   0  0  0  0  0  0  0  0  0 26  0  0
   -0.5210    1.6726    3.1990 C   0  0  0  0  0  0  0  0  0 27  0  0
    0.6461    0.8478    3.2796 C   0  0  0  0  0  0  0  0  0 28  0  0
    1.6023    0.2327    3.3882 N   0  0  0  0  0  0  0  0  0 29  0  0
   -0.2422    2.5833    2.6355 H   0  0  0  0  0  0  0  0  0 30  0  0
   -0.8307    1.9906    4.2076 H   0  0  0  0  0  0  0  0  0 31  0  0
   -1.0830   -2.0105    2.7408 S   0  0  0  0  0  0  0  0  0 32  0  0
    0.3337   -2.4396    0.6048 H   0  0  0  0  0  0  0  0  0 33  0  0
    1.9299   -1.2649   -2.4233 C   0  0  2  0  0  0  0  0  0  2  0  0
    0.6212   -0.2626   -3.0065 Cl  0  0  0  0  0  0  0  0  0  6  0  0
    2.2770   -2.6044   -3.5019 Cl  0  0  0  0  0  0  0  0  0  7  0  0
    3.0754   -0.6179   -1.6821 C   0  0  0  0  0  0  0  0  0  3  0  0
    3.0078    0.4422   -1.5311 H   0  0  0  0  0  0  0  0  0  4  0  0
    4.0637   -1.0276   -1.8206 H   0  0  0  0  0  0  0  0  0  5  0  0
    2.7691   -2.7366    0.6460 H   0  0  0  0  0  0  0  0  0 34  0  0
    1.6507   -3.5354   -0.4607 H   0  0  0  0  0  0  0  0  0 35  0  0
    3.3006   -3.2024   -0.9681 H   0  0  0  0  0  0  0  0  0 36  0  0
  2  1  1  1
  2  3  1  0
  3  4  2  0
  3  5  1  0
  5  6  1  0
  6  7  1  0
  7  8  1  0
  8  9  4  0
  9 10  1  0
  9 11  4  0
 11 12  1  0
 11 13  4  0
 13 14  1  0
 13 15  4  0
 15 16  1  0
 15 17  4  0
 17 18  1  0
  7 19  1  0
 19 20  1  0
 19 21  1  0
 19 22  1  0
 22 23  1  0
 23 24  3  0
 22 25  1  0
 22 26  1  0
  6 27  2  0
  5 28  1  0
  2 29  1  0
 29 30  1  1
 29 31  1  0
 29 32  1  0
 32 33  1  0
 32 34  1  0
  1 35  1  0
  1 36  1  0
  1 37  1  0
 32  2  1  0
 17  8  4  0
M  END
>  <sample_id>  (158)
train::CC1(C(=O)NC(=S)N(CCC#N)c2ccccc2)CC1(Cl)Cl__gen0001

>  <partition>  (158)
BAT_EXTERNAL_CONFIRM

>  <method>  (158)
BA_seed193

>  <candidate>  (158)
primary

$$$$
train::CC1(C(=O)NC(=S)N(CCC#N)c2ccccc2)CC1(Cl)Cl__gen0002
     RDKit          3D

 37 38  0  0  0  0  0  0  0  0999 V2000
    2.0205    0.3935   -2.6263 C   0  0  0  0  0  0  0  0  0  0  0  0
    2.4437    0.5733   -1.1827 C   0  0  1  0  0  0  0  0  0  1  0  0
    1.3419    0.2826   -0.2069 C   0  0  0  0  0  0  0  0  0  8  0  0
    0.7207    1.1419    0.3835 O   0  0  0  0  0  0  0  0  0  9  0  0
    1.1063   -1.0594   -0.0777 N   0  0  0  0  0  0  0  0  0 10  0  0
    0.2003   -1.6133    0.8271 C   0  0  0  0  0  0  0  0  0 11  0  0
   -1.0031   -1.0388    0.9728 N   0  0  0  0  0  0  0  0  0 12  0  0
   -1.5600   -0.1985   -0.0162 C   0  0  0  0  0  0  0  0  0 13  0  0
   -2.2353    0.9714    0.3337 C   0  0  0  0  0  0  0  0  0 14  0  0
   -2.3132    1.2571    1.3693 H   0  0  0  0  0  0  0  0  0 23  0  0
   -2.7964    1.7577   -0.6497 C   0  0  0  0  0  0  0  0  0 15  0  0
   -3.3123    2.6691   -0.3724 H   0  0  0  0  0  0  0  0  0 22  0  0
   -2.6956    1.4094   -1.9881 C   0  0  0  0  0  0  0  0  0 16  0  0
   -3.1175    2.0368   -2.7515 H   0  0  0  0  0  0  0  0  0 21  0  0
   -2.0172    0.2540   -2.3382 C   0  0  0  0  0  0  0  0  0 17  0  0
   -1.9420   -0.0489   -3.3661 H   0  0  0  0  0  0  0  0  0 20  0  0
   -1.4589   -0.5561   -1.3673 C   0  0  0  0  0  0  0  0  0 18  0  0
   -0.9699   -1.4785   -1.6419 H   0  0  0  0  0  0  0  0  0 19  0  0
   -1.8123   -1.3739    2.1303 C   0  0  0  0  0  0  0  0  0 24  0  0
   -1.8228   -2.4725    2.2469 H   0  0  0  0  0  0  0  0  0 25  0  0
   -2.8265   -1.0267    1.9476 H   0  0  0  0  0  0  0  0  0 26  0  0
   -1.2401   -0.7522    3.4185 C   0  0  0  0  0  0  0  0  0 27  0  0
   -2.1313   -0.9911    4.5164 C   0  0  0  0  0  0  0  0  0 28  0  0
   -2.8742   -1.2141    5.3687 N   0  0  0  0  0  0  0  0  0 29  0  0
   -1.1016    0.3168    3.2818 H   0  0  0  0  0  0  0  0  0 30  0  0
   -0.2676   -1.2007    3.6303 H   0  0  0  0  0  0  0  0  0 31  0  0
    0.6705   -2.9592    1.6715 S   0  0  0  0  0  0  0  0  0 32  0  0
    1.8096   -1.7065   -0.4161 H   0  0  0  0  0  0  0  0  0 33  0  0
    3.8743    0.2466   -0.7783 C   0  0  1  0  0  0  0  0  0  2  0  0
    4.0935   -0.6029    0.7483 Cl  0  0  0  0  0  0  0  0  0  6  0  0
    5.0093   -0.2378   -2.0192 Cl  0  0  0  0  0  0  0  0  0  7  0  0
    3.4078    1.6858   -0.7727 C   0  0  0  0  0  0  0  0  0  3  0  0
    3.8036    2.3336   -1.5422 H   0  0  0  0  0  0  0  0  0  4  0  0
    3.2522    2.1502    0.2013 H   0  0  0  0  0  0  0  0  0  5  0  0
    2.8454    0.6317   -3.2959 H   0  0  0  0  0  0  0  0  0 34  0  0
    1.1851    1.0523   -2.8316 H   0  0  0  0  0  0  0  0  0 35  0  0
    1.7130   -0.6327   -2.8073 H   0  0  0  0  0  0  0  0  0 36  0  0
  2  1  1  6
  2  3  1  0
  3  4  2  0
  3  5  1  0
  5  6  1  0
  6  7  1  0
  7  8  1  0
  8  9  4  0
  9 10  1  0
  9 11  4  0
 11 12  1  0
 11 13  4  0
 13 14  1  0
 13 15  4  0
 15 16  1  0
 15 17  4  0
 17 18  1  0
  7 19  1  0
 19 20  1  0
 19 21  1  0
 19 22  1  0
 22 23  1  0
 23 24  3  0
 22 25  1  0
 22 26  1  0
  6 27  2  0
  5 28  1  0
  2 29  1  0
 29 30  1  6
 29 31  1  0
 29 32  1  0
 32 33  1  0
 32 34  1  0
  1 35  1  0
  1 36  1  0
  1 37  1  0
 32  2  1  0
 17  8  4  0
M  END
>  <sample_id>  (159)
train::CC1(C(=O)NC(=S)N(CCC#N)c2ccccc2)CC1(Cl)Cl__gen0002

>  <partition>  (159)
BAT_EXTERNAL_CONFIRM

>  <method>  (159)
BA_seed193

>  <candidate>  (159)
primary

$$$$
train::CC1(C)CC(=O)C(C2c3ccccc3Oc3ccccc32)C(=O)C1__gen0000
     RDKit          3D

 44 47  0  0  0  0  0  0  0  0999 V2000
   -1.2829   -0.8094    3.1196 C   0  0  0  0  0  0  0  0  0  0  0  0
   -0.6989   -0.5307    3.9962 H   0  0  0  0  0  0  0  0  0  1  0  0
   -2.2821   -1.0885    3.4554 H   0  0  0  0  0  0  0  0  0  2  0  0
   -1.3563    0.0647    2.4778 H   0  0  0  0  0  0  0  0  0  3  0  0
   -0.6071   -1.9706    2.3830 C   0  0  1  0  0  0  0  0  0  4  0  0
   -0.4345   -3.1601    3.3343 C   0  0  0  0  0  0  0  0  0  5  0  0
    0.2258   -2.8880    4.1577 H   0  0  0  0  0  0  0  0  0  6  0  0
   -1.3963   -3.4425    3.7601 H   0  0  0  0  0  0  0  0  0  7  0  0
   -0.0266   -4.0197    2.8236 H   0  0  0  0  0  0  0  0  0  8  0  0
   -1.4501   -2.4104    1.1732 C   0  0  0  0  0  0  0  0  0  9  0  0
   -1.0118   -3.2797    0.6858 H   0  0  0  0  0  0  0  0  0 42  0  0
   -2.4534   -2.6868    1.4929 H   0  0  0  0  0  0  0  0  0 43  0  0
   -1.5555   -1.3181    0.1488 C   0  0  0  0  0  0  0  0  0 10  0  0
   -2.6055   -0.9521   -0.3135 O   0  0  0  0  0  0  0  0  0 11  0  0
   -0.1990   -0.8084   -0.3237 C   0  0  1  0  0  0  0  0  0 12  0  0
    0.3098   -1.6465   -0.8102 H   0  0  0  0  0  0  0  0  0 18  0  0
   -0.3626    0.2661   -1.4511 C   0  0  1  0  0  0  0  0  0 19  0  0
   -1.1741   -0.0519   -2.1083 H   0  0  0  0  0  0  0  0  0 41  0  0
   -0.6714    1.6368   -0.9048 C   0  0  0  0  0  0  0  0  0 20  0  0
   -1.9431    1.9724   -0.4793 C   0  0  0  0  0  0  0  0  0 21  0  0
   -2.7406    1.2652   -0.6179 H   0  0  0  0  0  0  0  0  0 40  0  0
   -2.1880    3.1890    0.1078 C   0  0  0  0  0  0  0  0  0 22  0  0
   -3.1917    3.4379    0.4117 H   0  0  0  0  0  0  0  0  0 39  0  0
   -1.1679    4.1035    0.2653 C   0  0  0  0  0  0  0  0  0 23  0  0
   -1.3508    5.0504    0.7308 H   0  0  0  0  0  0  0  0  0 38  0  0
    0.1021    3.7917   -0.1788 C   0  0  0  0  0  0  0  0  0 24  0  0
    0.9212    4.4968   -0.1081 H   0  0  0  0  0  0  0  0  0 37  0  0
    0.3532    2.5777   -0.7759 C   0  0  0  0  0  0  0  0  0 25  0  0
    1.6436    2.3450   -1.2159 O   0  0  0  0  0  0  0  0  0 26  0  0
    1.8313    1.3258   -2.0882 C   0  0  0  0  0  0  0  0  0 27  0  0
    3.0464    1.3192   -2.7893 C   0  0  0  0  0  0  0  0  0 28  0  0
    3.7450    2.1055   -2.5928 H   0  0  0  0  0  0  0  0  0 36  0  0
    3.2922    0.3380   -3.7113 C   0  0  0  0  0  0  0  0  0 29  0  0
    4.2287    0.3135   -4.2440 H   0  0  0  0  0  0  0  0  0 35  0  0
    2.3420   -0.6424   -3.9645 C   0  0  0  0  0  0  0  0  0 30  0  0
    2.5376   -1.4116   -4.6981 H   0  0  0  0  0  0  0  0  0 34  0  0
    1.1470   -0.6459   -3.2476 C   0  0  0  0  0  0  0  0  0 31  0  0
    0.4138   -1.3891   -3.4264 H   0  0  0  0  0  0  0  0  0 33  0  0
    0.8889    0.3205   -2.2911 C   0  0  0  0  0  0  0  0  0 32  0  0
    0.6192   -0.4103    0.8506 C   0  0  0  0  0  0  0  0  0 13  0  0
    1.0962    0.6782    1.0073 O   0  0  0  0  0  0  0  0  0 14  0  0
    0.7578   -1.5176    1.8637 C   0  0  0  0  0  0  0  0  0 15  0  0
    1.3759   -1.1461    2.6984 H   0  0  0  0  0  0  0  0  0 16  0  0
    1.2726   -2.3715    1.3967 H   0  0  0  0  0  0  0  0  0 17  0  0
  1  2  1  0
  1  3  1  0
  1  4  1  0
  5  1  1  6
  5  6  1  0
  6  7  1  0
  6  8  1  0
  6  9  1  0
  5 10  1  0
 10 11  1  0
 10 12  1  0
 10 13  1  0
 13 14  2  0
 13 15  1  0
 15 16  1  6
 15 17  1  0
 17 18  1  6
 17 19  1  0
 19 20  4  0
 20 21  1  0
 20 22  4  0
 22 23  1  0
 22 24  4  0
 24 25  1  0
 24 26  4  0
 26 27  1  0
 26 28  4  0
 28 29  1  0
 29 30  1  0
 30 31  4  0
 31 32  1  0
 31 33  4  0
 33 34  1  0
 33 35  4  0
 35 36  1  0
 35 37  4  0
 37 38  1  0
 37 39  4  0
 15 40  1  0
 40 41  2  0
 40 42  1  0
 42 43  1  0
 42 44  1  0
 42  5  1  0
 39 17  1  0
 28 19  4  0
 39 30  4  0
M  END
>  <sample_id>  (160)
train::CC1(C)CC(=O)C(C2c3ccccc3Oc3ccccc32)C(=O)C1__gen0000

>  <partition>  (160)
BAT_EXTERNAL_CONFIRM

>  <method>  (160)
BA_seed193

>  <candidate>  (160)
primary

$$$$
train::CC1(C)CC(=O)C(C2c3ccccc3Oc3ccccc32)C(=O)C1__gen0001
     RDKit          3D

 44 47  0  0  0  0  0  0  0  0999 V2000
   -1.3603   -3.5617   -2.4814 C   0  0  0  0  0  0  0  0  0  0  0  0
   -0.4956   -4.2106   -2.5222 H   0  0  0  0  0  0  0  0  0  1  0  0
   -2.1462   -4.0610   -1.9275 H   0  0  0  0  0  0  0  0  0  2  0  0
   -1.7336   -3.4414   -3.5024 H   0  0  0  0  0  0  0  0  0  3  0  0
   -1.0202   -2.2266   -1.8667 C   0  0  2  0  0  0  0  0  0  4  0  0
   -2.1980   -1.2666   -1.9835 C   0  0  0  0  0  0  0  0  0  5  0  0
   -2.4543   -1.0842   -3.0308 H   0  0  0  0  0  0  0  0  0  6  0  0
   -1.9748   -0.3049   -1.5239 H   0  0  0  0  0  0  0  0  0  7  0  0
   -3.0730   -1.6807   -1.4920 H   0  0  0  0  0  0  0  0  0  8  0  0
    0.2082   -1.6247   -2.5829 C   0  0  0  0  0  0  0  0  0  9  0  0
   -0.0041   -1.4795   -3.6415 H   0  0  0  0  0  0  0  0  0 42  0  0
    1.0522   -2.3066   -2.4893 H   0  0  0  0  0  0  0  0  0 43  0  0
    0.6145   -0.3097   -1.9713 C   0  0  0  0  0  0  0  0  0 10  0  0
    0.8582    0.6630   -2.6642 O   0  0  0  0  0  0  0  0  0 11  0  0
    0.8791   -0.3528   -0.4700 C   0  0  1  0  0  0  0  0  0 12  0  0
    1.7998   -0.9198   -0.3896 H   0  0  0  0  0  0  0  0  0 18  0  0
    1.1344    1.0530    0.1350 C   0  0  2  0  0  0  0  0  0 19  0  0
    1.8045    1.5910   -0.5459 H   0  0  0  0  0  0  0  0  0 41  0  0
    1.7914    0.8726    1.4807 C   0  0  0  0  0  0  0  0  0 20  0  0
    3.1123    0.4644    1.5859 C   0  0  0  0  0  0  0  0  0 21  0  0
    3.6787    0.2722    0.6833 H   0  0  0  0  0  0  0  0  0 40  0  0
    3.6951    0.2356    2.8220 C   0  0  0  0  0  0  0  0  0 22  0  0
    4.7174   -0.1018    2.8848 H   0  0  0  0  0  0  0  0  0 39  0  0
    2.9502    0.4545    3.9718 C   0  0  0  0  0  0  0  0  0 23  0  0
    3.4032    0.2861    4.9477 H   0  0  0  0  0  0  0  0  0 38  0  0
    1.6480    0.9179    3.8921 C   0  0  0  0  0  0  0  0  0 24  0  0
    1.0703    1.1012    4.7754 H   0  0  0  0  0  0  0  0  0 37  0  0
    1.0710    1.1225    2.6402 C   0  0  0  0  0  0  0  0  0 25  0  0
   -0.1978    1.6078    2.6388 O   0  0  0  0  0  0  0  0  0 26  0  0
   -0.7306    2.0749    1.4752 C   0  0  0  0  0  0  0  0  0 27  0  0
   -1.9363    2.7686    1.5651 C   0  0  0  0  0  0  0  0  0 28  0  0
   -2.3935    2.8782    2.5365 H   0  0  0  0  0  0  0  0  0 36  0  0
   -2.4939    3.3094    0.4353 C   0  0  0  0  0  0  0  0  0 29  0  0
   -3.4201    3.8700    0.5146 H   0  0  0  0  0  0  0  0  0 35  0  0
   -1.8561    3.1999   -0.7814 C   0  0  0  0  0  0  0  0  0 30  0  0
   -2.2793    3.6522   -1.6734 H   0  0  0  0  0  0  0  0  0 34  0  0
   -0.6721    2.4926   -0.8743 C   0  0  0  0  0  0  0  0  0 31  0  0
   -0.1538    2.3855   -1.8115 H   0  0  0  0  0  0  0  0  0 33  0  0
   -0.1180    1.8905    0.2343 C   0  0  0  0  0  0  0  0  0 32  0  0
   -0.2254   -1.1198    0.2615 C   0  0  0  0  0  0  0  0  0 13  0  0
   -0.6756   -0.7623    1.3121 O   0  0  0  0  0  0  0  0  0 14  0  0
   -0.6422   -2.4052   -0.4008 C   0  0  0  0  0  0  0  0  0 15  0  0
   -1.4520   -2.8444    0.1734 H   0  0  0  0  0  0  0  0  0 16  0  0
    0.2185   -3.0992   -0.3393 H   0  0  0  0  0  0  0  0  0 17  0  0
  1  2  1  0
  1  3  1  0
  1  4  1  0
  5  1  1  6
  5  6  1  0
  6  7  1  0
  6  8  1  0
  6  9  1  0
  5 10  1  0
 10 11  1  0
 10 12  1  0
 10 13  1  0
 13 14  2  0
 13 15  1  0
 15 16  1  6
 15 17  1  0
 17 18  1  1
 17 19  1  0
 19 20  4  0
 20 21  1  0
 20 22  4  0
 22 23  1  0
 22 24  4  0
 24 25  1  0
 24 26  4  0
 26 27  1  0
 26 28  4  0
 28 29  1  0
 29 30  1  0
 30 31  4  0
 31 32  1  0
 31 33  4  0
 33 34  1  0
 33 35  4  0
 35 36  1  0
 35 37  4  0
 37 38  1  0
 37 39  4  0
 15 40  1  0
 40 41  2  0
 40 42  1  0
 42 43  1  0
 42 44  1  0
 42  5  1  0
 39 17  1  0
 28 19  4  0
 39 30  4  0
M  END
>  <sample_id>  (161)
train::CC1(C)CC(=O)C(C2c3ccccc3Oc3ccccc32)C(=O)C1__gen0001

>  <partition>  (161)
BAT_EXTERNAL_CONFIRM

>  <method>  (161)
BA_seed193

>  <candidate>  (161)
primary

$$$$
train::CC1(C)CC(=O)C(C2c3ccccc3Oc3ccccc32)C(=O)C1__gen0002
     RDKit          3D

 44 47  0  0  0  0  0  0  0  0999 V2000
   -3.0789    2.2603   -1.2643 C   0  0  0  0  0  0  0  0  0  0  0  0
   -3.4030    2.6236   -2.2435 H   0  0  0  0  0  0  0  0  0  1  0  0
   -3.9433    1.8336   -0.7479 H   0  0  0  0  0  0  0  0  0  2  0  0
   -2.7121    3.1106   -0.6933 H   0  0  0  0  0  0  0  0  0  3  0  0
   -1.9697    1.2011   -1.4282 C   0  0  2  0  0  0  0  0  0  4  0  0
   -2.4931   -0.0063   -2.2241 C   0  0  0  0  0  0  0  0  0  5  0  0
   -3.2820   -0.5180   -1.6644 H   0  0  0  0  0  0  0  0  0  6  0  0
   -1.6938   -0.6929   -2.4207 H   0  0  0  0  0  0  0  0  0  7  0  0
   -2.9070    0.3270   -3.1823 H   0  0  0  0  0  0  0  0  0  8  0  0
   -1.5425    0.7941   -0.0139 C   0  0  0  0  0  0  0  0  0  9  0  0
   -2.2803    1.0734    0.7419 H   0  0  0  0  0  0  0  0  0 42  0  0
   -1.4217   -0.2921    0.0288 H   0  0  0  0  0  0  0  0  0 43  0  0
   -0.2455    1.4387    0.3914 C   0  0  0  0  0  0  0  0  0 10  0  0
   -0.1152    2.2460    1.2738 O   0  0  0  0  0  0  0  0  0 11  0  0
    0.9246    1.0603   -0.5038 C   0  0  1  0  0  0  0  0  0 12  0  0
    1.6331    1.8838   -0.4266 H   0  0  0  0  0  0  0  0  0 18  0  0
    1.6682   -0.2240   -0.0470 C   0  0  1  0  0  0  0  0  0 19  0  0
    2.5074   -0.3707   -0.7147 H   0  0  0  0  0  0  0  0  0 41  0  0
    2.1111   -0.0122    1.3756 C   0  0  0  0  0  0  0  0  0 20  0  0
    3.1674    0.8305    1.6804 C   0  0  0  0  0  0  0  0  0 21  0  0
    3.7204    1.2798    0.8669 H   0  0  0  0  0  0  0  0  0 40  0  0
    3.5038    1.1021    2.9799 C   0  0  0  0  0  0  0  0  0 22  0  0
    4.3382    1.7537    3.2062 H   0  0  0  0  0  0  0  0  0 39  0  0
    2.7735    0.5410    4.0282 C   0  0  0  0  0  0  0  0  0 23  0  0
    3.0375    0.7583    5.0562 H   0  0  0  0  0  0  0  0  0 38  0  0
    1.7128   -0.3031    3.7438 C   0  0  0  0  0  0  0  0  0 24  0  0
    1.1409   -0.7655    4.5303 H   0  0  0  0  0  0  0  0  0 37  0  0
    1.3818   -0.5653    2.4234 C   0  0  0  0  0  0  0  0  0 25  0  0
    0.3348   -1.4306    2.2231 O   0  0  0  0  0  0  0  0  0 26  0  0
    0.1699   -1.9645    0.9881 C   0  0  0  0  0  0  0  0  0 27  0  0
   -0.6845   -3.0536    0.8674 C   0  0  0  0  0  0  0  0  0 28  0  0
   -1.1742   -3.4228    1.7646 H   0  0  0  0  0  0  0  0  0 36  0  0
   -0.8900   -3.6696   -0.3528 C   0  0  0  0  0  0  0  0  0 29  0  0
   -1.5404   -4.5044   -0.4227 H   0  0  0  0  0  0  0  0  0 35  0  0
   -0.2163   -3.1875   -1.4727 C   0  0  0  0  0  0  0  0  0 30  0  0
   -0.3546   -3.6806   -2.4251 H   0  0  0  0  0  0  0  0  0 34  0  0
    0.6230   -2.0990   -1.3567 C   0  0  0  0  0  0  0  0  0 31  0  0
    1.1444   -1.7152   -2.2167 H   0  0  0  0  0  0  0  0  0 33  0  0
    0.8064   -1.4559   -0.1505 C   0  0  0  0  0  0  0  0  0 32  0  0
    0.4837    1.0019   -1.9549 C   0  0  0  0  0  0  0  0  0 13  0  0
    1.1506    0.4752   -2.8246 O   0  0  0  0  0  0  0  0  0 14  0  0
   -0.7833    1.7644   -2.2138 C   0  0  0  0  0  0  0  0  0 15  0  0
   -0.6068    2.8088   -1.9188 H   0  0  0  0  0  0  0  0  0 16  0  0
   -0.9955    1.7657   -3.2861 H   0  0  0  0  0  0  0  0  0 17  0  0
  1  2  1  0
  1  3  1  0
  1  4  1  0
  5  1  1  1
  5  6  1  0
  6  7  1  0
  6  8  1  0
  6  9  1  0
  5 10  1  0
 10 11  1  0
 10 12  1  0
 10 13  1  0
 13 14  2  0
 13 15  1  0
 15 16  1  6
 15 17  1  0
 17 18  1  6
 17 19  1  0
 19 20  4  0
 20 21  1  0
 20 22  4  0
 22 23  1  0
 22 24  4  0
 24 25  1  0
 24 26  4  0
 26 27  1  0
 26 28  4  0
 28 29  1  0
 29 30  1  0
 30 31  4  0
 31 32  1  0
 31 33  4  0
 33 34  1  0
 33 35  4  0
 35 36  1  0
 35 37  4  0
 37 38  1  0
 37 39  4  0
 15 40  1  0
 40 41  2  0
 40 42  1  0
 42 43  1  0
 42 44  1  0
 42  5  1  0
 39 17  1  0
 28 19  4  0
 39 30  4  0
M  END
>  <sample_id>  (162)
train::CC1(C)CC(=O)C(C2c3ccccc3Oc3ccccc32)C(=O)C1__gen0002

>  <partition>  (162)
BAT_EXTERNAL_CONFIRM

>  <method>  (162)
BA_seed193

>  <candidate>  (162)
primary

$$$$
train::COc1ccc(NC(=O)N[C@@H](Cc2ccccc2)C(=O)NN)cc1__gen0000
     RDKit          3D

 44 45  0  0  0  0  0  0  0  0999 V2000
   -0.9896   -3.6086   -3.8882 C   0  0  0  0  0  0  0  0  0  0  0  0
   -1.9897   -4.0586   -3.8193 H   0  0  0  0  0  0  0  0  0  1  0  0
   -1.0102   -2.2523   -3.5477 O   0  0  0  0  0  0  0  0  0  2  0  0
   -1.3822   -1.8910   -2.2839 C   0  0  0  0  0  0  0  0  0  3  0  0
   -1.3751   -0.5251   -2.0089 C   0  0  0  0  0  0  0  0  0  4  0  0
   -1.0920    0.1574   -2.8050 H   0  0  0  0  0  0  0  0  0 41  0  0
   -1.6998   -0.0557   -0.7524 C   0  0  0  0  0  0  0  0  0  5  0  0
   -1.7181    1.0101   -0.5808 H   0  0  0  0  0  0  0  0  0 40  0  0
   -2.0489   -0.9440    0.2584 C   0  0  0  0  0  0  0  0  0  6  0  0
   -2.3318   -0.5018    1.5534 N   0  0  0  0  0  0  0  0  0 11  0  0
   -1.5837    0.3265    2.3582 C   0  0  0  0  0  0  0  0  0 12  0  0
   -1.8807    0.5108    3.5262 O   0  0  0  0  0  0  0  0  0 13  0  0
   -0.5039    0.8848    1.7614 N   0  0  0  0  0  0  0  0  0 14  0  0
   -0.2412    0.5746    0.8438 H   0  0  0  0  0  0  0  0  0 15  0  0
    0.5379    1.5597    2.5108 C   0  0  2  0  0  0  0  0  0 16  0  0
    0.7732    2.9948    2.0127 C   0  0  0  0  0  0  0  0  0 17  0  0
    1.8300    3.5744    2.1075 O   0  0  0  0  0  0  0  0  0 18  0  0
   -0.2996    3.5496    1.4060 N   0  0  0  0  0  0  0  0  0 19  0  0
   -1.2141    3.1124    1.4245 H   0  0  0  0  0  0  0  0  0 20  0  0
   -0.2876    4.8627    0.9480 N   0  0  0  0  0  0  0  0  0 21  0  0
   -0.1903    4.8774   -0.0695 H   0  0  0  0  0  0  0  0  0 22  0  0
    0.5307    5.3089    1.3486 H   0  0  0  0  0  0  0  0  0 23  0  0
    0.2124    1.6235    3.5572 H   0  0  0  0  0  0  0  0  0 24  0  0
    1.8524    0.7527    2.4185 C   0  0  0  0  0  0  0  0  0 25  0  0
    2.0646    0.2592    1.0028 C   0  0  0  0  0  0  0  0  0 26  0  0
    1.6400   -1.0125    0.6322 C   0  0  0  0  0  0  0  0  0 27  0  0
    1.2359   -1.6766    1.3803 H   0  0  0  0  0  0  0  0  0 36  0  0
    1.7162   -1.4157   -0.6899 C   0  0  0  0  0  0  0  0  0 28  0  0
    1.3744   -2.4004   -0.9650 H   0  0  0  0  0  0  0  0  0 35  0  0
    2.2159   -0.5515   -1.6576 C   0  0  0  0  0  0  0  0  0 29  0  0
    2.2675   -0.8654   -2.6875 H   0  0  0  0  0  0  0  0  0 34  0  0
    2.6555    0.7084   -1.2907 C   0  0  0  0  0  0  0  0  0 30  0  0
    3.0659    1.3734   -2.0343 H   0  0  0  0  0  0  0  0  0 33  0  0
    2.5800    1.1073    0.0351 C   0  0  0  0  0  0  0  0  0 31  0  0
    2.9148    2.0960    0.3175 H   0  0  0  0  0  0  0  0  0 32  0  0
    2.6654    1.3983    2.7231 H   0  0  0  0  0  0  0  0  0 37  0  0
    1.7855   -0.1071    3.0931 H   0  0  0  0  0  0  0  0  0 38  0  0
   -3.0387   -1.0125    2.0789 H   0  0  0  0  0  0  0  0  0 39  0  0
   -2.1027   -2.3041   -0.0362 C   0  0  0  0  0  0  0  0  0  7  0  0
   -2.3859   -2.9969    0.7469 H   0  0  0  0  0  0  0  0  0 10  0  0
   -1.7758   -2.7791   -1.2887 C   0  0  0  0  0  0  0  0  0  8  0  0
   -1.8205   -3.8329   -1.4697 H   0  0  0  0  0  0  0  0  0  9  0  0
   -0.6553   -3.6630   -4.9229 H   0  0  0  0  0  0  0  0  0 42  0  0
   -0.3005   -4.1681   -3.2471 H   0  0  0  0  0  0  0  0  0 43  0  0
  1  2  1  0
  1  3  1  0
  3  4  1  0
  4  5  4  0
  5  6  1  0
  5  7  4  0
  7  8  1  0
  7  9  4  0
  9 10  1  0
 10 11  1  0
 11 12  2  0
 11 13  1  0
 13 14  1  0
 13 15  1  0
 15 16  1  0
 16 17  2  0
 16 18  1  0
 18 19  1  0
 18 20  1  0
 20 21  1  0
 20 22  1  0
 15 23  1  1
 15 24  1  0
 24 25  1  0
 25 26  4  0
 26 27  1  0
 26 28  4  0
 28 29  1  0
 28 30  4  0
 30 31  1  0
 30 32  4  0
 32 33  1  0
 32 34  4  0
 34 35  1  0
 24 36  1  0
 24 37  1  0
 10 38  1  0
  9 39  4  0
 39 40  1  0
 39 41  4  0
 41 42  1  0
  1 43  1  0
  1 44  1  0
 41  4  4  0
 34 25  4  0
M  END
>  <sample_id>  (163)
train::COc1ccc(NC(=O)N[C@@H](Cc2ccccc2)C(=O)NN)cc1__gen0000

>  <partition>  (163)
BAT_EXTERNAL_CONFIRM

>  <method>  (163)
BA_seed193

>  <candidate>  (163)
primary

$$$$
train::COc1ccc(NC(=O)N[C@@H](Cc2ccccc2)C(=O)NN)cc1__gen0001
     RDKit          3D

 44 45  0  0  0  0  0  0  0  0999 V2000
    3.4970   -2.9732    2.9449 C   0  0  0  0  0  0  0  0  0  0  0  0
    3.9372   -3.8929    3.3184 H   0  0  0  0  0  0  0  0  0  1  0  0
    3.7901   -2.9301    1.5685 O   0  0  0  0  0  0  0  0  0  2  0  0
    3.3765   -1.8672    0.8379 C   0  0  0  0  0  0  0  0  0  3  0  0
    3.7240   -1.8753   -0.5071 C   0  0  0  0  0  0  0  0  0  4  0  0
    4.3020   -2.6962   -0.8836 H   0  0  0  0  0  0  0  0  0 41  0  0
    3.3290   -0.8534   -1.3446 C   0  0  0  0  0  0  0  0  0  5  0  0
    3.6260   -0.8732   -2.3772 H   0  0  0  0  0  0  0  0  0 40  0  0
    2.5696    0.2104   -0.8591 C   0  0  0  0  0  0  0  0  0  6  0  0
    2.2250    1.2500   -1.7349 N   0  0  0  0  0  0  0  0  0 11  0  0
    1.1034    2.0454   -1.7443 C   0  0  0  0  0  0  0  0  0 12  0  0
    1.0815    3.0476   -2.4433 O   0  0  0  0  0  0  0  0  0 13  0  0
    0.0570    1.6236   -0.9881 N   0  0  0  0  0  0  0  0  0 14  0  0
    0.1102    0.7071   -0.5704 H   0  0  0  0  0  0  0  0  0 15  0  0
   -1.1396    2.4099   -0.8439 C   0  0  2  0  0  0  0  0  0 16  0  0
   -1.6147    2.4942    0.6104 C   0  0  0  0  0  0  0  0  0 17  0  0
   -2.0709    3.5083    1.0899 O   0  0  0  0  0  0  0  0  0 18  0  0
   -1.4832    1.3493    1.3193 N   0  0  0  0  0  0  0  0  0 19  0  0
   -1.2988    0.4522    0.8881 H   0  0  0  0  0  0  0  0  0 20  0  0
   -2.0527    1.2707    2.6043 N   0  0  0  0  0  0  0  0  0 21  0  0
   -2.5194    2.1538    2.7904 H   0  0  0  0  0  0  0  0  0 22  0  0
   -1.3396    1.1150    3.3104 H   0  0  0  0  0  0  0  0  0 23  0  0
   -0.9074    3.4303   -1.1825 H   0  0  0  0  0  0  0  0  0 24  0  0
   -2.2875    1.8449   -1.7512 C   0  0  0  0  0  0  0  0  0 25  0  0
   -2.6569    0.4581   -1.3264 C   0  0  0  0  0  0  0  0  0 26  0  0
   -3.6807    0.2526   -0.4105 C   0  0  0  0  0  0  0  0  0 27  0  0
   -4.2421    1.0976   -0.0417 H   0  0  0  0  0  0  0  0  0 36  0  0
   -3.9769   -1.0214    0.0428 C   0  0  0  0  0  0  0  0  0 28  0  0
   -4.7754   -1.1606    0.7553 H   0  0  0  0  0  0  0  0  0 35  0  0
   -3.2494   -2.1113   -0.4224 C   0  0  0  0  0  0  0  0  0 29  0  0
   -3.4835   -3.1086   -0.0740 H   0  0  0  0  0  0  0  0  0 34  0  0
   -2.2398   -1.9228   -1.3450 C   0  0  0  0  0  0  0  0  0 30  0  0
   -1.6751   -2.7600   -1.7232 H   0  0  0  0  0  0  0  0  0 33  0  0
   -1.9448   -0.6424   -1.7901 C   0  0  0  0  0  0  0  0  0 31  0  0
   -1.1579   -0.4979   -2.5187 H   0  0  0  0  0  0  0  0  0 32  0  0
   -3.1335    2.5212   -1.6486 H   0  0  0  0  0  0  0  0  0 37  0  0
   -1.9291    1.8634   -2.7803 H   0  0  0  0  0  0  0  0  0 38  0  0
    2.8852    1.4717   -2.4627 H   0  0  0  0  0  0  0  0  0 39  0  0
    2.2345    0.2223    0.4977 C   0  0  0  0  0  0  0  0  0  7  0  0
    1.7013    1.0638    0.9036 H   0  0  0  0  0  0  0  0  0 10  0  0
    2.6184   -0.8092    1.3342 C   0  0  0  0  0  0  0  0  0  8  0  0
    2.3433   -0.7489    2.3655 H   0  0  0  0  0  0  0  0  0  9  0  0
    3.9288   -2.1161    3.4743 H   0  0  0  0  0  0  0  0  0 42  0  0
    2.4186   -3.0028    3.1177 H   0  0  0  0  0  0  0  0  0 43  0  0
  1  2  1  0
  1  3  1  0
  3  4  1  0
  4  5  4  0
  5  6  1  0
  5  7  4  0
  7  8  1  0
  7  9  4  0
  9 10  1  0
 10 11  1  0
 11 12  2  0
 11 13  1  0
 13 14  1  0
 13 15  1  0
 15 16  1  0
 16 17  2  0
 16 18  1  0
 18 19  1  0
 18 20  1  0
 20 21  1  0
 20 22  1  0
 15 23  1  6
 15 24  1  0
 24 25  1  0
 25 26  4  0
 26 27  1  0
 26 28  4  0
 28 29  1  0
 28 30  4  0
 30 31  1  0
 30 32  4  0
 32 33  1  0
 32 34  4  0
 34 35  1  0
 24 36  1  0
 24 37  1  0
 10 38  1  0
  9 39  4  0
 39 40  1  0
 39 41  4  0
 41 42  1  0
  1 43  1  0
  1 44  1  0
 41  4  4  0
 34 25  4  0
M  END
>  <sample_id>  (164)
train::COc1ccc(NC(=O)N[C@@H](Cc2ccccc2)C(=O)NN)cc1__gen0001

>  <partition>  (164)
BAT_EXTERNAL_CONFIRM

>  <method>  (164)
BA_seed193

>  <candidate>  (164)
primary

$$$$
train::COc1ccc(NC(=O)N[C@@H](Cc2ccccc2)C(=O)NN)cc1__gen0002
     RDKit          3D

 44 45  0  0  0  0  0  0  0  0999 V2000
    3.6139    3.3953    5.3657 C   0  0  0  0  0  0  0  0  0  0  0  0
    4.3682    2.6561    5.1040 H   0  0  0  0  0  0  0  0  0  1  0  0
    3.0847    3.9982    4.2238 O   0  0  0  0  0  0  0  0  0  2  0  0
    2.4188    3.2385    3.3312 C   0  0  0  0  0  0  0  0  0  3  0  0
    2.2209    1.8545    3.4329 C   0  0  0  0  0  0  0  0  0  4  0  0
    2.6133    1.3042    4.2641 H   0  0  0  0  0  0  0  0  0 41  0  0
    1.5228    1.1620    2.4540 C   0  0  0  0  0  0  0  0  0  5  0  0
    1.4142    0.0910    2.5366 H   0  0  0  0  0  0  0  0  0 40  0  0
    0.9974    1.8381    1.3551 C   0  0  0  0  0  0  0  0  0  6  0  0
    0.2873    1.1795    0.3362 N   0  0  0  0  0  0  0  0  0 11  0  0
   -0.5171    0.0880    0.5177 C   0  0  0  0  0  0  0  0  0 12  0  0
   -0.8243   -0.3861    1.5821 O   0  0  0  0  0  0  0  0  0 13  0  0
   -0.9109   -0.4530   -0.7044 N   0  0  0  0  0  0  0  0  0 14  0  0
   -0.3088   -0.2173   -1.4774 H   0  0  0  0  0  0  0  0  0 15  0  0
   -2.2793   -0.6720   -1.1167 C   0  0  2  0  0  0  0  0  0 16  0  0
   -2.8967   -1.9802   -0.5977 C   0  0  0  0  0  0  0  0  0 17  0  0
   -3.6120   -2.7089   -1.2811 O   0  0  0  0  0  0  0  0  0 18  0  0
   -2.6278   -2.2416    0.6815 N   0  0  0  0  0  0  0  0  0 19  0  0
   -2.1229   -1.5803    1.2709 H   0  0  0  0  0  0  0  0  0 20  0  0
   -3.3110   -3.2943    1.3639 N   0  0  0  0  0  0  0  0  0 21  0  0
   -2.6613   -3.7740    1.9597 H   0  0  0  0  0  0  0  0  0 22  0  0
   -3.7479   -3.8563    0.6393 H   0  0  0  0  0  0  0  0  0 23  0  0
   -2.9186    0.1303   -0.7088 H   0  0  0  0  0  0  0  0  0 24  0  0
   -2.3568   -0.6166   -2.6588 C   0  0  0  0  0  0  0  0  0 25  0  0
   -1.1867   -1.3277   -3.2983 C   0  0  0  0  0  0  0  0  0 26  0  0
   -0.0709   -0.6155   -3.7403 C   0  0  0  0  0  0  0  0  0 27  0  0
   -0.0864    0.4685   -3.6645 H   0  0  0  0  0  0  0  0  0 36  0  0
    1.0194   -1.2687   -4.2783 C   0  0  0  0  0  0  0  0  0 28  0  0
    1.8737   -0.7077   -4.6246 H   0  0  0  0  0  0  0  0  0 35  0  0
    1.0161   -2.6533   -4.3881 C   0  0  0  0  0  0  0  0  0 29  0  0
    1.8625   -3.1692   -4.8124 H   0  0  0  0  0  0  0  0  0 34  0  0
   -0.0832   -3.3761   -3.9522 C   0  0  0  0  0  0  0  0  0 30  0  0
   -0.0853   -4.4490   -4.0426 H   0  0  0  0  0  0  0  0  0 33  0  0
   -1.1738   -2.7220   -3.4056 C   0  0  0  0  0  0  0  0  0 31  0  0
   -2.0311   -3.2780   -3.0808 H   0  0  0  0  0  0  0  0  0 32  0  0
   -3.2762   -1.0736   -2.9816 H   0  0  0  0  0  0  0  0  0 37  0  0
   -2.3428    0.4305   -2.9775 H   0  0  0  0  0  0  0  0  0 38  0  0
    0.2140    1.6911   -0.5218 H   0  0  0  0  0  0  0  0  0 39  0  0
    1.1953    3.2071    1.2570 C   0  0  0  0  0  0  0  0  0  7  0  0
    0.8001    3.7266    0.3994 H   0  0  0  0  0  0  0  0  0 10  0  0
    1.8945    3.9004    2.2112 C   0  0  0  0  0  0  0  0  0  8  0  0
    2.0846    4.9579    2.1242 H   0  0  0  0  0  0  0  0  0  9  0  0
    2.8460    2.9134    5.9641 H   0  0  0  0  0  0  0  0  0 42  0  0
    4.0839    4.1906    5.9390 H   0  0  0  0  0  0  0  0  0 43  0  0
  1  2  1  0
  1  3  1  0
  3  4  1  0
  4  5  4  0
  5  6  1  0
  5  7  4  0
  7  8  1  0
  7  9  4  0
  9 10  1  0
 10 11  1  0
 11 12  2  0
 11 13  1  0
 13 14  1  0
 13 15  1  0
 15 16  1  0
 16 17  2  0
 16 18  1  0
 18 19  1  0
 18 20  1  0
 20 21  1  0
 20 22  1  0
 15 23  1  1
 15 24  1  0
 24 25  1  0
 25 26  4  0
 26 27  1  0
 26 28  4  0
 28 29  1  0
 28 30  4  0
 30 31  1  0
 30 32  4  0
 32 33  1  0
 32 34  4  0
 34 35  1  0
 24 36  1  0
 24 37  1  0
 10 38  1  0
  9 39  4  0
 39 40  1  0
 39 41  4  0
 41 42  1  0
  1 43  1  0
  1 44  1  0
 41  4  4  0
 34 25  4  0
M  END
>  <sample_id>  (165)
train::COc1ccc(NC(=O)N[C@@H](Cc2ccccc2)C(=O)NN)cc1__gen0002

>  <partition>  (165)
BAT_EXTERNAL_CONFIRM

>  <method>  (165)
BA_seed193

>  <candidate>  (165)
primary

$$$$
train::Cn1c(NCCCO)nc2c(c1=O)C1(CCCCC1)Cc1ccccc1-2__gen0000
     RDKit          3D

 53 56  0  0  0  0  0  0  0  0999 V2000
    2.3198   -1.9928   -2.4792 C   0  0  0  0  0  0  0  0  0  0  0  0
    1.5599   -1.3833   -1.4062 N   0  0  0  0  0  0  0  0  0  1  0  0
    0.7924   -2.1143   -0.5650 C   0  0  0  0  0  0  0  0  0  2  0  0
    0.8173   -3.4903   -0.7075 N   0  0  0  0  0  0  0  0  0 37  0  0
    1.0984   -3.8485   -1.6034 H   0  0  0  0  0  0  0  0  0 38  0  0
   -0.1937   -4.2953   -0.0670 C   0  0  0  0  0  0  0  0  0 39  0  0
   -1.5639   -4.2490   -0.7631 C   0  0  0  0  0  0  0  0  0 40  0  0
   -2.4964   -5.3289   -0.2436 C   0  0  0  0  0  0  0  0  0 41  0  0
   -3.5232   -5.1585   -0.6218 H   0  0  0  0  0  0  0  0  0 42  0  0
   -2.1068   -6.6356   -0.5788 O   0  0  0  0  0  0  0  0  0 43  0  0
   -1.9666   -6.6799   -1.5511 H   0  0  0  0  0  0  0  0  0 44  0  0
   -2.5463   -5.2897    0.8598 H   0  0  0  0  0  0  0  0  0 45  0  0
   -1.9856   -3.2764   -0.6017 H   0  0  0  0  0  0  0  0  0 46  0  0
   -1.3976   -4.3872   -1.8399 H   0  0  0  0  0  0  0  0  0 47  0  0
    0.2418   -5.3004   -0.0261 H   0  0  0  0  0  0  0  0  0 48  0  0
   -0.3028   -3.9279    0.9686 H   0  0  0  0  0  0  0  0  0 49  0  0
    0.0851   -1.6053    0.4028 N   0  0  0  0  0  0  0  0  0  3  0  0
    0.1216   -0.2623    0.5828 C   0  0  0  0  0  0  0  0  0  4  0  0
    0.9046    0.5762   -0.1685 C   0  0  0  0  0  0  0  0  0  5  0  0
    1.6583    0.0299   -1.2589 C   0  0  0  0  0  0  0  0  0  6  0  0
    2.3511    0.6138   -2.0495 O   0  0  0  0  0  0  0  0  0  7  0  0
    0.8550    2.0906    0.0268 C   0  0  2  0  0  0  0  0  0  8  0  0
   -0.1809    2.6329   -0.9659 C   0  0  0  0  0  0  0  0  0  9  0  0
   -1.1510    2.1843   -0.7614 H   0  0  0  0  0  0  0  0  0 22  0  0
    0.1477    2.3300   -1.9678 H   0  0  0  0  0  0  0  0  0 23  0  0
   -0.2864    4.1579   -0.9445 C   0  0  0  0  0  0  0  0  0 10  0  0
   -0.6584    4.4843    0.0344 H   0  0  0  0  0  0  0  0  0 20  0  0
   -1.0323    4.4682   -1.6897 H   0  0  0  0  0  0  0  0  0 21  0  0
    1.0525    4.8001   -1.2320 C   0  0  0  0  0  0  0  0  0 11  0  0
    1.3864    4.4972   -2.2341 H   0  0  0  0  0  0  0  0  0 18  0  0
    0.9635    5.8797   -1.2100 H   0  0  0  0  0  0  0  0  0 19  0  0
    2.0832    4.3252   -0.2109 C   0  0  0  0  0  0  0  0  0 12  0  0
    3.0607    4.7547   -0.4194 H   0  0  0  0  0  0  0  0  0 16  0  0
    1.7802    4.6471    0.7814 H   0  0  0  0  0  0  0  0  0 17  0  0
    2.2118    2.7964   -0.2443 C   0  0  0  0  0  0  0  0  0 13  0  0
    2.9361    2.4465    0.4984 H   0  0  0  0  0  0  0  0  0 14  0  0
    2.5632    2.4986   -1.2322 H   0  0  0  0  0  0  0  0  0 15  0  0
    0.5495    2.3614    1.5105 C   0  0  0  0  0  0  0  0  0 24  0  0
    1.4291    2.0903    2.0978 H   0  0  0  0  0  0  0  0  0 35  0  0
    0.3317    3.4325    1.6616 H   0  0  0  0  0  0  0  0  0 36  0  0
   -0.5924    1.5736    2.0347 C   0  0  0  0  0  0  0  0  0 25  0  0
   -1.4594    2.1062    2.9657 C   0  0  0  0  0  0  0  0  0 26  0  0
   -1.3399    3.1432    3.2974 H   0  0  0  0  0  0  0  0  0 34  0  0
   -2.4819    1.3363    3.5143 C   0  0  0  0  0  0  0  0  0 27  0  0
   -3.1442    1.7769    4.2435 H   0  0  0  0  0  0  0  0  0 33  0  0
   -2.6285    0.0118    3.1318 C   0  0  0  0  0  0  0  0  0 28  0  0
   -3.4071   -0.5760    3.5597 H   0  0  0  0  0  0  0  0  0 32  0  0
   -1.7611   -0.5171    2.1900 C   0  0  0  0  0  0  0  0  0 29  0  0
   -1.8719   -1.5487    1.8795 H   0  0  0  0  0  0  0  0  0 31  0  0
   -0.7645    0.2594    1.6183 C   0  0  0  0  0  0  0  0  0 30  0  0
    2.7852   -1.1943   -3.0320 H   0  0  0  0  0  0  0  0  0 50  0  0
    3.0888   -2.6636   -2.0641 H   0  0  0  0  0  0  0  0  0 51  0  0
    1.6678   -2.5799   -3.1200 H   0  0  0  0  0  0  0  0  0 52  0  0
  1  2  1  0
  2  3  4  0
  3  4  1  0
  4  5  1  0
  4  6  1  0
  6  7  1  0
  7  8  1  0
  8  9  1  0
  8 10  1  0
 10 11  1  0
  8 12  1  0
  7 13  1  0
  7 14  1  0
  6 15  1  0
  6 16  1  0
  3 17  4  0
 17 18  4  0
 18 19  4  0
 19 20  4  0
 20 21  2  0
 19 22  1  0
 22 23  1  6
 23 24  1  0
 23 25  1  0
 23 26  1  0
 26 27  1  0
 26 28  1  0
 26 29  1  0
 29 30  1  0
 29 31  1  0
 29 32  1  0
 32 33  1  0
 32 34  1  0
 32 35  1  0
 35 36  1  0
 35 37  1  0
 22 38  1  0
 38 39  1  0
 38 40  1  0
 38 41  1  0
 41 42  4  0
 42 43  1  0
 42 44  4  0
 44 45  1  0
 44 46  4  0
 46 47  1  0
 46 48  4  0
 48 49  1  0
 48 50  4  0
  1 51  1  0
  1 52  1  0
  1 53  1  0
 20  2  4  0
 35 22  1  0
 50 41  4  0
 50 18  1  0
M  END
>  <sample_id>  (166)
train::Cn1c(NCCCO)nc2c(c1=O)C1(CCCCC1)Cc1ccccc1-2__gen0000

>  <partition>  (166)
BAT_EXTERNAL_CONFIRM

>  <method>  (166)
BA_seed193

>  <candidate>  (166)
primary

$$$$
train::Cn1c(NCCCO)nc2c(c1=O)C1(CCCCC1)Cc1ccccc1-2__gen0001
     RDKit          3D

 53 56  0  0  0  0  0  0  0  0999 V2000
   -2.6091    2.2326    1.6365 C   0  0  0  0  0  0  0  0  0  0  0  0
   -1.5113    1.3511    1.2853 N   0  0  0  0  0  0  0  0  0  1  0  0
   -1.1789    0.2801    2.0470 C   0  0  0  0  0  0  0  0  0  2  0  0
   -1.8713    0.0589    3.2061 N   0  0  0  0  0  0  0  0  0 37  0  0
   -2.7572    0.5396    3.3000 H   0  0  0  0  0  0  0  0  0 38  0  0
   -1.9114   -1.3026    3.7525 C   0  0  0  0  0  0  0  0  0 39  0  0
   -2.9273   -2.2222    3.0430 C   0  0  0  0  0  0  0  0  0 40  0  0
   -4.3539   -1.6687    3.0692 C   0  0  0  0  0  0  0  0  0 41  0  0
   -4.6737   -1.4042    4.0648 H   0  0  0  0  0  0  0  0  0 42  0  0
   -4.4930   -0.4961    2.2818 O   0  0  0  0  0  0  0  0  0 43  0  0
   -3.7987   -0.5390    1.5995 H   0  0  0  0  0  0  0  0  0 44  0  0
   -5.0408   -2.4478    2.6934 H   0  0  0  0  0  0  0  0  0 45  0  0
   -2.6346   -2.3504    2.0030 H   0  0  0  0  0  0  0  0  0 46  0  0
   -2.9053   -3.1944    3.5424 H   0  0  0  0  0  0  0  0  0 47  0  0
   -2.1698   -1.2144    4.8113 H   0  0  0  0  0  0  0  0  0 48  0  0
   -0.9059   -1.6871    3.6448 H   0  0  0  0  0  0  0  0  0 49  0  0
   -0.2213   -0.5335    1.7328 N   0  0  0  0  0  0  0  0  0  3  0  0
    0.5323   -0.2736    0.6362 C   0  0  0  0  0  0  0  0  0  4  0  0
    0.3169    0.8228   -0.1833 C   0  0  0  0  0  0  0  0  0  5  0  0
   -0.8392    1.6311    0.0634 C   0  0  0  0  0  0  0  0  0  6  0  0
   -1.3178    2.5005   -0.6375 O   0  0  0  0  0  0  0  0  0  7  0  0
    1.2042    1.0448   -1.4068 C   0  0  2  0  0  0  0  0  0  8  0  0
    1.3291    2.5423   -1.7674 C   0  0  0  0  0  0  0  0  0  9  0  0
    0.3209    2.9385   -1.8519 H   0  0  0  0  0  0  0  0  0 22  0  0
    1.8535    3.0645   -0.9725 H   0  0  0  0  0  0  0  0  0 23  0  0
    2.0175    2.7679   -3.1079 C   0  0  0  0  0  0  0  0  0 10  0  0
    2.0307    3.8357   -3.3273 H   0  0  0  0  0  0  0  0  0 20  0  0
    3.0601    2.4293   -3.0644 H   0  0  0  0  0  0  0  0  0 21  0  0
    1.2909    2.0260   -4.2242 C   0  0  0  0  0  0  0  0  0 11  0  0
    1.7926    2.1905   -5.1802 H   0  0  0  0  0  0  0  0  0 18  0  0
    0.2755    2.4016   -4.3126 H   0  0  0  0  0  0  0  0  0 19  0  0
    1.2438    0.5455   -3.9187 C   0  0  0  0  0  0  0  0  0 12  0  0
    0.7002   -0.0067   -4.7013 H   0  0  0  0  0  0  0  0  0 16  0  0
    2.2582    0.1330   -3.8919 H   0  0  0  0  0  0  0  0  0 17  0  0
    0.5658    0.2903   -2.5784 C   0  0  0  0  0  0  0  0  0 13  0  0
   -0.4748    0.6145   -2.6448 H   0  0  0  0  0  0  0  0  0 14  0  0
    0.5552   -0.7864   -2.3487 H   0  0  0  0  0  0  0  0  0 15  0  0
    2.6066    0.5067   -1.0864 C   0  0  0  0  0  0  0  0  0 24  0  0
    3.0697    1.1379   -0.3299 H   0  0  0  0  0  0  0  0  0 35  0  0
    3.2349    0.5390   -1.9832 H   0  0  0  0  0  0  0  0  0 36  0  0
    2.5725   -0.9009   -0.5780 C   0  0  0  0  0  0  0  0  0 25  0  0
    3.5312   -1.8408   -0.9187 C   0  0  0  0  0  0  0  0  0 26  0  0
    4.3204   -1.5549   -1.6070 H   0  0  0  0  0  0  0  0  0 34  0  0
    3.5024   -3.1029   -0.3864 C   0  0  0  0  0  0  0  0  0 27  0  0
    4.2635   -3.8188   -0.6700 H   0  0  0  0  0  0  0  0  0 33  0  0
    2.4969   -3.4642    0.5098 C   0  0  0  0  0  0  0  0  0 28  0  0
    2.4761   -4.4478    0.9367 H   0  0  0  0  0  0  0  0  0 32  0  0
    1.5352   -2.5316    0.8580 C   0  0  0  0  0  0  0  0  0 29  0  0
    0.7507   -2.7866    1.5562 H   0  0  0  0  0  0  0  0  0 31  0  0
    1.5550   -1.2425    0.3181 C   0  0  0  0  0  0  0  0  0 30  0  0
   -2.4797    2.6833    2.6255 H   0  0  0  0  0  0  0  0  0 50  0  0
   -3.5697    1.6996    1.5848 H   0  0  0  0  0  0  0  0  0 51  0  0
   -2.6177    3.0108    0.8771 H   0  0  0  0  0  0  0  0  0 52  0  0
  1  2  1  0
  2  3  4  0
  3  4  1  0
  4  5  1  0
  4  6  1  0
  6  7  1  0
  7  8  1  0
  8  9  1  0
  8 10  1  0
 10 11  1  0
  8 12  1  0
  7 13  1  0
  7 14  1  0
  6 15  1  0
  6 16  1  0
  3 17  4  0
 17 18  4  0
 18 19  4  0
 19 20  4  0
 20 21  2  0
 19 22  1  0
 22 23  1  6
 23 24  1  0
 23 25  1  0
 23 26  1  0
 26 27  1  0
 26 28  1  0
 26 29  1  0
 29 30  1  0
 29 31  1  0
 29 32  1  0
 32 33  1  0
 32 34  1  0
 32 35  1  0
 35 36  1  0
 35 37  1  0
 22 38  1  0
 38 39  1  0
 38 40  1  0
 38 41  1  0
 41 42  4  0
 42 43  1  0
 42 44  4  0
 44 45  1  0
 44 46  4  0
 46 47  1  0
 46 48  4  0
 48 49  1  0
 48 50  4  0
  1 51  1  0
  1 52  1  0
  1 53  1  0
 20  2  4  0
 35 22  1  0
 50 41  4  0
 50 18  1  0
M  END
>  <sample_id>  (167)
train::Cn1c(NCCCO)nc2c(c1=O)C1(CCCCC1)Cc1ccccc1-2__gen0001

>  <partition>  (167)
BAT_EXTERNAL_CONFIRM

>  <method>  (167)
BA_seed193

>  <candidate>  (167)
primary

$$$$
train::Cn1c(NCCCO)nc2c(c1=O)C1(CCCCC1)Cc1ccccc1-2__gen0002
     RDKit          3D

 53 56  0  0  0  0  0  0  0  0999 V2000
    1.1036    1.0456    3.6097 C   0  0  0  0  0  0  0  0  0  0  0  0
    0.7163    0.8659    2.2142 N   0  0  0  0  0  0  0  0  0  1  0  0
    1.6085    1.0448    1.1998 C   0  0  0  0  0  0  0  0  0  2  0  0
    2.8731    1.4949    1.4841 N   0  0  0  0  0  0  0  0  0 37  0  0
    3.2416    1.3526    2.4064 H   0  0  0  0  0  0  0  0  0 38  0  0
    3.8533    1.5587    0.4243 C   0  0  0  0  0  0  0  0  0 39  0  0
    4.5237    0.2243    0.1503 C   0  0  0  0  0  0  0  0  0 40  0  0
    5.4712    0.2912   -1.0745 C   0  0  0  0  0  0  0  0  0 41  0  0
    6.2039    1.0798   -0.9262 H   0  0  0  0  0  0  0  0  0 42  0  0
    4.7965    0.6058   -2.2699 O   0  0  0  0  0  0  0  0  0 43  0  0
    4.0921   -0.0444   -2.3633 H   0  0  0  0  0  0  0  0  0 44  0  0
    6.0081   -0.6674   -1.1761 H   0  0  0  0  0  0  0  0  0 45  0  0
    5.1054   -0.0966    1.0222 H   0  0  0  0  0  0  0  0  0 46  0  0
    3.7469   -0.5072   -0.0457 H   0  0  0  0  0  0  0  0  0 47  0  0
    3.3439    1.9110   -0.4702 H   0  0  0  0  0  0  0  0  0 48  0  0
    4.5783    2.3247    0.7156 H   0  0  0  0  0  0  0  0  0 49  0  0
    1.2550    0.9106   -0.0542 N   0  0  0  0  0  0  0  0  0  3  0  0
   -0.0030    0.5754   -0.3384 C   0  0  0  0  0  0  0  0  0  4  0  0
   -0.9770    0.2862    0.6100 C   0  0  0  0  0  0  0  0  0  5  0  0
   -0.6047    0.4426    1.9888 C   0  0  0  0  0  0  0  0  0  6  0  0
   -1.2920    0.2637    2.9788 O   0  0  0  0  0  0  0  0  0  7  0  0
   -2.3415   -0.1858    0.1317 C   0  0  2  0  0  0  0  0  0  8  0  0
   -3.5028   -0.0649    1.1584 C   0  0  0  0  0  0  0  0  0  9  0  0
   -4.4216   -0.0434    0.5712 H   0  0  0  0  0  0  0  0  0 22  0  0
   -3.3932    0.8855    1.6845 H   0  0  0  0  0  0  0  0  0 23  0  0
   -3.6203   -1.1840    2.1916 C   0  0  0  0  0  0  0  0  0 10  0  0
   -4.5833   -1.0686    2.6997 H   0  0  0  0  0  0  0  0  0 20  0  0
   -2.8264   -1.0980    2.9176 H   0  0  0  0  0  0  0  0  0 21  0  0
   -3.5386   -2.5717    1.5598 C   0  0  0  0  0  0  0  0  0 11  0  0
   -4.3839   -2.7189    0.8931 H   0  0  0  0  0  0  0  0  0 18  0  0
   -3.5759   -3.3275    2.3373 H   0  0  0  0  0  0  0  0  0 19  0  0
   -2.2271   -2.6716    0.7804 C   0  0  0  0  0  0  0  0  0 12  0  0
   -1.3958   -2.4563    1.4550 H   0  0  0  0  0  0  0  0  0 16  0  0
   -2.1016   -3.6758    0.3778 H   0  0  0  0  0  0  0  0  0 17  0  0
   -2.2433   -1.6550   -0.3432 C   0  0  0  0  0  0  0  0  0 13  0  0
   -3.1087   -1.8601   -0.9754 H   0  0  0  0  0  0  0  0  0 14  0  0
   -1.3380   -1.7846   -0.9706 H   0  0  0  0  0  0  0  0  0 15  0  0
   -2.6963    0.6907   -1.0806 C   0  0  0  0  0  0  0  0  0 24  0  0
   -2.7683    1.7227   -0.7248 H   0  0  0  0  0  0  0  0  0 35  0  0
   -3.6713    0.3988   -1.4709 H   0  0  0  0  0  0  0  0  0 36  0  0
   -1.6640    0.5946   -2.1413 C   0  0  0  0  0  0  0  0  0 25  0  0
   -1.9817    0.5413   -3.4896 C   0  0  0  0  0  0  0  0  0 26  0  0
   -3.0151    0.6223   -3.7928 H   0  0  0  0  0  0  0  0  0 34  0  0
   -0.9935    0.4305   -4.4537 C   0  0  0  0  0  0  0  0  0 27  0  0
   -1.2617    0.3984   -5.4955 H   0  0  0  0  0  0  0  0  0 33  0  0
    0.3327    0.3582   -4.0653 C   0  0  0  0  0  0  0  0  0 28  0  0
    1.1026    0.2442   -4.8264 H   0  0  0  0  0  0  0  0  0 32  0  0
    0.6652    0.3857   -2.7268 C   0  0  0  0  0  0  0  0  0 29  0  0
    1.6951    0.3294   -2.4223 H   0  0  0  0  0  0  0  0  0 31  0  0
   -0.3295    0.5223   -1.7622 C   0  0  0  0  0  0  0  0  0 30  0  0
    1.5911    2.0113    3.7486 H   0  0  0  0  0  0  0  0  0 50  0  0
    1.7695    0.2598    3.9570 H   0  0  0  0  0  0  0  0  0 51  0  0
    0.1826    1.0080    4.1921 H   0  0  0  0  0  0  0  0  0 52  0  0
  1  2  1  0
  2  3  4  0
  3  4  1  0
  4  5  1  0
  4  6  1  0
  6  7  1  0
  7  8  1  0
  8  9  1  0
  8 10  1  0
 10 11  1  0
  8 12  1  0
  7 13  1  0
  7 14  1  0
  6 15  1  0
  6 16  1  0
  3 17  4  0
 17 18  4  0
 18 19  4  0
 19 20  4  0
 20 21  2  0
 19 22  1  0
 22 23  1  1
 23 24  1  0
 23 25  1  0
 23 26  1  0
 26 27  1  0
 26 28  1  0
 26 29  1  0
 29 30  1  0
 29 31  1  0
 29 32  1  0
 32 33  1  0
 32 34  1  0
 32 35  1  0
 35 36  1  0
 35 37  1  0
 22 38  1  0
 38 39  1  0
 38 40  1  0
 38 41  1  0
 41 42  4  0
 42 43  1  0
 42 44  4  0
 44 45  1  0
 44 46  4  0
 46 47  1  0
 46 48  4  0
 48 49  1  0
 48 50  4  0
  1 51  1  0
  1 52  1  0
  1 53  1  0
 20  2  4  0
 35 22  1  0
 50 41  4  0
 50 18  1  0
M  END
>  <sample_id>  (168)
train::Cn1c(NCCCO)nc2c(c1=O)C1(CCCCC1)Cc1ccccc1-2__gen0002

>  <partition>  (168)
BAT_EXTERNAL_CONFIRM

>  <method>  (168)
BA_seed193

>  <candidate>  (168)
primary

$$$$
train::O=C(c1ccc(OC2CCN(CCc3ccccc3)CC2)cc1)N1CCCCC1CCCO__gen0000
     RDKit          3D

 71 74  0  0  0  0  0  0  0  0999 V2000
   -4.4287    0.0203    1.1670 O   0  0  0  0  0  0  0  0  0  0  0  0
   -3.5441   -0.1456    0.3598 C   0  0  0  0  0  0  0  0  0  1  0  0
   -3.7626   -0.7148   -0.8521 N   0  0  0  0  0  0  0  0  0  2  0  0
   -5.1353   -1.0616   -1.2317 C   0  0  2  0  0  0  0  0  0  3  0  0
   -5.7708   -0.5934   -0.4744 H   0  0  0  0  0  0  0  0  0  4  0  0
   -5.3686   -2.5741   -1.1807 C   0  0  0  0  0  0  0  0  0 17  0  0
   -5.1061   -3.1357    0.2106 C   0  0  0  0  0  0  0  0  0 18  0  0
   -5.2654   -4.6559    0.2606 C   0  0  0  0  0  0  0  0  0 19  0  0
   -4.2676   -5.3487   -0.4578 O   0  0  0  0  0  0  0  0  0 20  0  0
   -3.4774   -4.8440   -0.5046 H   0  0  0  0  0  0  0  0  0 21  0  0
   -6.2245   -4.9536   -0.1644 H   0  0  0  0  0  0  0  0  0 22  0  0
   -5.2219   -4.9874    1.3110 H   0  0  0  0  0  0  0  0  0 23  0  0
   -5.8042   -2.6802    0.9212 H   0  0  0  0  0  0  0  0  0 24  0  0
   -4.0943   -2.8757    0.5393 H   0  0  0  0  0  0  0  0  0 25  0  0
   -6.3975   -2.7819   -1.4658 H   0  0  0  0  0  0  0  0  0 26  0  0
   -4.7260   -3.0861   -1.9158 H   0  0  0  0  0  0  0  0  0 27  0  0
   -5.4690   -0.4418   -2.5895 C   0  0  0  0  0  0  0  0  0  5  0  0
   -6.4612   -0.7845   -2.9017 H   0  0  0  0  0  0  0  0  0 15  0  0
   -5.5141    0.6464   -2.4753 H   0  0  0  0  0  0  0  0  0 16  0  0
   -4.4309   -0.7795   -3.6654 C   0  0  0  0  0  0  0  0  0  6  0  0
   -4.4312   -1.8435   -3.8672 H   0  0  0  0  0  0  0  0  0 13  0  0
   -4.6612   -0.2485   -4.5833 H   0  0  0  0  0  0  0  0  0 14  0  0
   -3.0434   -0.3616   -3.1606 C   0  0  0  0  0  0  0  0  0  7  0  0
   -2.2711   -0.6266   -3.8843 H   0  0  0  0  0  0  0  0  0 11  0  0
   -3.0100    0.7286   -3.0211 H   0  0  0  0  0  0  0  0  0 12  0  0
   -2.7607   -1.0438   -1.8259 C   0  0  0  0  0  0  0  0  0  8  0  0
   -2.7428   -2.1356   -1.9830 H   0  0  0  0  0  0  0  0  0  9  0  0
   -1.7697   -0.7568   -1.4456 H   0  0  0  0  0  0  0  0  0 10  0  0
   -2.1417    0.2805    0.6407 C   0  0  0  0  0  0  0  0  0 28  0  0
   -1.5400    1.3160   -0.0581 C   0  0  0  0  0  0  0  0  0 29  0  0
   -2.0581    1.7617   -0.8827 H   0  0  0  0  0  0  0  0  0 70  0  0
   -0.3030    1.7788    0.3098 C   0  0  0  0  0  0  0  0  0 30  0  0
    0.1725    2.5766   -0.2377 H   0  0  0  0  0  0  0  0  0 69  0  0
    0.3669    1.2308    1.4144 C   0  0  0  0  0  0  0  0  0 31  0  0
    1.5998    1.6951    1.6568 O   0  0  0  0  0  0  0  0  0 36  0  0
    2.1486    1.7156    2.9614 C   0  0  1  0  0  0  0  0  0 37  0  0
    1.3271    1.7869    3.6956 H   0  0  0  0  0  0  0  0  0 68  0  0
    3.0195    0.5024    3.3202 C   0  0  0  0  0  0  0  0  0 38  0  0
    2.4095   -0.4010    3.3582 H   0  0  0  0  0  0  0  0  0 66  0  0
    3.4039    0.6646    4.3329 H   0  0  0  0  0  0  0  0  0 67  0  0
    4.1831    0.3402    2.3552 C   0  0  0  0  0  0  0  0  0 39  0  0
    4.8334   -0.4684    2.7180 H   0  0  0  0  0  0  0  0  0 64  0  0
    3.7444    0.0045    1.4101 H   0  0  0  0  0  0  0  0  0 65  0  0
    4.9516    1.5528    2.2695 N   0  0  0  0  0  0  0  0  0 40  0  0
    6.1852    1.3724    1.5169 C   0  0  0  0  0  0  0  0  0 41  0  0
    6.9134    0.8865    2.1712 H   0  0  0  0  0  0  0  0  0 42  0  0
    6.1268    0.5088    0.2066 C   0  0  0  0  0  0  0  0  0 43  0  0
    5.0279    0.8553   -0.7419 C   0  0  0  0  0  0  0  0  0 44  0  0
    3.9484   -0.0271   -0.8896 C   0  0  0  0  0  0  0  0  0 45  0  0
    3.8964   -0.9645   -0.3303 H   0  0  0  0  0  0  0  0  0 54  0  0
    2.8708    0.2711   -1.7444 C   0  0  0  0  0  0  0  0  0 46  0  0
    2.0423   -0.4053   -1.8311 H   0  0  0  0  0  0  0  0  0 53  0  0
    2.9189    1.4475   -2.4742 C   0  0  0  0  0  0  0  0  0 47  0  0
    2.0881    1.6727   -3.1425 H   0  0  0  0  0  0  0  0  0 52  0  0
    4.0039    2.3090   -2.3468 C   0  0  0  0  0  0  0  0  0 48  0  0
    4.0277    3.2288   -2.9157 H   0  0  0  0  0  0  0  0  0 51  0  0
    5.0523    2.0159   -1.4909 C   0  0  0  0  0  0  0  0  0 49  0  0
    5.8788    2.6749   -1.3918 H   0  0  0  0  0  0  0  0  0 50  0  0
    7.0865    0.6279   -0.2868 H   0  0  0  0  0  0  0  0  0 55  0  0
    6.0558   -0.5424    0.4798 H   0  0  0  0  0  0  0  0  0 56  0  0
    6.5625    2.3635    1.2591 H   0  0  0  0  0  0  0  0  0 57  0  0
    4.1688    2.7090    1.9210 C   0  0  0  0  0  0  0  0  0 58  0  0
    3.7122    2.5972    0.9361 H   0  0  0  0  0  0  0  0  0 62  0  0
    4.8417    3.5756    1.8764 H   0  0  0  0  0  0  0  0  0 63  0  0
    3.0652    2.9328    2.9536 C   0  0  0  0  0  0  0  0  0 59  0  0
    2.5283    3.8383    2.6810 H   0  0  0  0  0  0  0  0  0 60  0  0
    3.5146    3.0627    3.9433 H   0  0  0  0  0  0  0  0  0 61  0  0
   -0.2508    0.2117    2.1395 C   0  0  0  0  0  0  0  0  0 32  0  0
    0.2381   -0.2271    3.0102 H   0  0  0  0  0  0  0  0  0 35  0  0
   -1.4910   -0.2372    1.7615 C   0  0  0  0  0  0  0  0  0 33  0  0
   -1.9697   -1.0295    2.3462 H   0  0  0  0  0  0  0  0  0 34  0  0
  1  2  2  0
  2  3  1  0
  3  4  1  0
  4  5  1  1
  4  6  1  0
  6  7  1  0
  7  8  1  0
  8  9  1  0
  9 10  1  0
  8 11  1  0
  8 12  1  0
  7 13  1  0
  7 14  1  0
  6 15  1  0
  6 16  1  0
  4 17  1  0
 17 18  1  0
 17 19  1  0
 17 20  1  0
 20 21  1  0
 20 22  1  0
 20 23  1  0
 23 24  1  0
 23 25  1  0
 23 26  1  0
 26 27  1  0
 26 28  1  0
  2 29  1  0
 29 30  4  0
 30 31  1  0
 30 32  4  0
 32 33  1  0
 32 34  4  0
 34 35  1  0
 35 36  1  0
 36 37  1  1
 36 38  1  0
 38 39  1  0
 38 40  1  0
 38 41  1  0
 41 42  1  0
 41 43  1  0
 41 44  1  0
 44 45  1  0
 45 46  1  0
 45 47  1  0
 47 48  1  0
 48 49  4  0
 49 50  1  0
 49 51  4  0
 51 52  1  0
 51 53  4  0
 53 54  1  0
 53 55  4  0
 55 56  1  0
 55 57  4  0
 57 58  1  0
 47 59  1  0
 47 60  1  0
 45 61  1  0
 44 62  1  0
 62 63  1  0
 62 64  1  0
 62 65  1  0
 65 66  1  0
 65 67  1  0
 34 68  4  0
 68 69  1  0
 68 70  4  0
 70 71  1  0
 26  3  1  0
 70 29  4  0
 65 36  1  0
 57 48  4  0
M  END
>  <sample_id>  (169)
train::O=C(c1ccc(OC2CCN(CCc3ccccc3)CC2)cc1)N1CCCCC1CCCO__gen0000

>  <partition>  (169)
BAT_EXTERNAL_CONFIRM

>  <method>  (169)
BA_seed193

>  <candidate>  (169)
primary

$$$$
train::O=C(c1ccc(OC2CCN(CCc3ccccc3)CC2)cc1)N1CCCCC1CCCO__gen0001
     RDKit          3D

 71 74  0  0  0  0  0  0  0  0999 V2000
   -4.9795   -1.2948    1.5934 O   0  0  0  0  0  0  0  0  0  0  0  0
   -3.9685   -1.6924    1.0294 C   0  0  0  0  0  0  0  0  0  1  0  0
   -3.9755   -2.7158    0.1527 N   0  0  0  0  0  0  0  0  0  2  0  0
   -2.8105   -3.2892   -0.4866 C   0  0  2  0  0  0  0  0  0  3  0  0
   -1.9387   -2.7102   -0.1627 H   0  0  0  0  0  0  0  0  0  4  0  0
   -2.8924   -3.2284   -2.0215 C   0  0  0  0  0  0  0  0  0 17  0  0
   -2.9650   -1.7942   -2.5385 C   0  0  0  0  0  0  0  0  0 18  0  0
   -1.6060   -1.2543   -3.0070 C   0  0  0  0  0  0  0  0  0 19  0  0
   -1.5110    0.1528   -3.0409 O   0  0  0  0  0  0  0  0  0 20  0  0
   -2.3903    0.5285   -3.1331 H   0  0  0  0  0  0  0  0  0 21  0  0
   -0.8102   -1.5725   -2.3312 H   0  0  0  0  0  0  0  0  0 22  0  0
   -1.3959   -1.6546   -4.0078 H   0  0  0  0  0  0  0  0  0 23  0  0
   -3.6651   -1.7133   -3.3720 H   0  0  0  0  0  0  0  0  0 24  0  0
   -3.3614   -1.1375   -1.7519 H   0  0  0  0  0  0  0  0  0 25  0  0
   -2.0034   -3.7144   -2.4297 H   0  0  0  0  0  0  0  0  0 26  0  0
   -3.7681   -3.7841   -2.3593 H   0  0  0  0  0  0  0  0  0 27  0  0
   -2.6226   -4.7298    0.0341 C   0  0  0  0  0  0  0  0  0  5  0  0
   -1.7573   -5.1800   -0.4484 H   0  0  0  0  0  0  0  0  0 15  0  0
   -2.4253   -4.6968    1.1172 H   0  0  0  0  0  0  0  0  0 16  0  0
   -3.8838   -5.5669   -0.2052 C   0  0  0  0  0  0  0  0  0  6  0  0
   -3.7489   -6.5683    0.2216 H   0  0  0  0  0  0  0  0  0 13  0  0
   -4.0669   -5.6872   -1.2742 H   0  0  0  0  0  0  0  0  0 14  0  0
   -5.0855   -4.8773    0.4581 C   0  0  0  0  0  0  0  0  0  7  0  0
   -4.9388   -4.8610    1.5384 H   0  0  0  0  0  0  0  0  0 11  0  0
   -5.9981   -5.4360    0.2547 H   0  0  0  0  0  0  0  0  0 12  0  0
   -5.2160   -3.4441   -0.0479 C   0  0  0  0  0  0  0  0  0  8  0  0
   -5.4878   -3.4351   -1.1186 H   0  0  0  0  0  0  0  0  0  9  0  0
   -5.9959   -2.9169    0.5020 H   0  0  0  0  0  0  0  0  0 10  0  0
   -2.6413   -1.0914    1.4004 C   0  0  0  0  0  0  0  0  0 28  0  0
   -1.9455   -0.2350    0.5518 C   0  0  0  0  0  0  0  0  0 29  0  0
   -2.3421    0.0168   -0.4333 H   0  0  0  0  0  0  0  0  0 70  0  0
   -0.7809    0.3835    0.9507 C   0  0  0  0  0  0  0  0  0 30  0  0
   -0.2804    1.0600    0.2646 H   0  0  0  0  0  0  0  0  0 69  0  0
   -0.2724    0.1423    2.2289 C   0  0  0  0  0  0  0  0  0 31  0  0
    0.8446    0.6584    2.7474 O   0  0  0  0  0  0  0  0  0 36  0  0
    1.6907    1.5067    1.9879 C   0  0  1  0  0  0  0  0  0 37  0  0
    1.8040    1.1106    0.9174 H   0  0  0  0  0  0  0  0  0 68  0  0
    1.1636    2.9344    1.8701 C   0  0  0  0  0  0  0  0  0 38  0  0
    0.1879    2.9781    1.3681 H   0  0  0  0  0  0  0  0  0 66  0  0
    1.0484    3.3517    2.8692 H   0  0  0  0  0  0  0  0  0 67  0  0
    2.1392    3.7506    1.0541 C   0  0  0  0  0  0  0  0  0 39  0  0
    2.1816    3.3760    0.0288 H   0  0  0  0  0  0  0  0  0 64  0  0
    1.8087    4.8037    1.0257 H   0  0  0  0  0  0  0  0  0 65  0  0
    3.4527    3.7155    1.6806 N   0  0  0  0  0  0  0  0  0 40  0  0
    4.4101    4.5887    1.0353 C   0  0  0  0  0  0  0  0  0 41  0  0
    5.0665    4.9788    1.8241 H   0  0  0  0  0  0  0  0  0 42  0  0
    5.3362    4.0279   -0.0562 C   0  0  0  0  0  0  0  0  0 43  0  0
    4.5873    3.2700   -1.1427 C   0  0  0  0  0  0  0  0  0 44  0  0
    3.9336    3.9268   -2.1725 C   0  0  0  0  0  0  0  0  0 45  0  0
    3.9947    4.9952   -2.2655 H   0  0  0  0  0  0  0  0  0 54  0  0
    3.1307    3.2056   -3.0635 C   0  0  0  0  0  0  0  0  0 46  0  0
    2.6196    3.7340   -3.8355 H   0  0  0  0  0  0  0  0  0 53  0  0
    2.9624    1.8308   -2.9578 C   0  0  0  0  0  0  0  0  0 47  0  0
    2.3641    1.2624   -3.6277 H   0  0  0  0  0  0  0  0  0 52  0  0
    3.6732    1.1511   -1.9548 C   0  0  0  0  0  0  0  0  0 48  0  0
    3.5481    0.0884   -1.8455 H   0  0  0  0  0  0  0  0  0 51  0  0
    4.4592    1.8943   -1.0656 C   0  0  0  0  0  0  0  0  0 49  0  0
    5.0312    1.3673   -0.2996 H   0  0  0  0  0  0  0  0  0 50  0  0
    6.0859    3.3769    0.3725 H   0  0  0  0  0  0  0  0  0 55  0  0
    5.8586    4.8638   -0.5252 H   0  0  0  0  0  0  0  0  0 56  0  0
    3.8533    5.4474    0.6267 H   0  0  0  0  0  0  0  0  0 57  0  0
    4.0108    2.3825    1.8359 C   0  0  0  0  0  0  0  0  0 58  0  0
    4.1780    1.8802    0.8742 H   0  0  0  0  0  0  0  0  0 62  0  0
    4.9602    2.4775    2.3509 H   0  0  0  0  0  0  0  0  0 63  0  0
    3.0443    1.5279    2.6573 C   0  0  0  0  0  0  0  0  0 59  0  0
    2.9856    1.9279    3.6547 H   0  0  0  0  0  0  0  0  0 60  0  0
    3.4452    0.5113    2.7249 H   0  0  0  0  0  0  0  0  0 61  0  0
   -0.9586   -0.7258    3.0844 C   0  0  0  0  0  0  0  0  0 32  0  0
   -0.5610   -0.9056    4.0665 H   0  0  0  0  0  0  0  0  0 35  0  0
   -2.1401   -1.3049    2.6788 C   0  0  0  0  0  0  0  0  0 33  0  0
   -2.6696   -1.9684    3.3485 H   0  0  0  0  0  0  0  0  0 34  0  0
  1  2  2  0
  2  3  1  0
  3  4  1  0
  4  5  1  1
  4  6  1  0
  6  7  1  0
  7  8  1  0
  8  9  1  0
  9 10  1  0
  8 11  1  0
  8 12  1  0
  7 13  1  0
  7 14  1  0
  6 15  1  0
  6 16  1  0
  4 17  1  0
 17 18  1  0
 17 19  1  0
 17 20  1  0
 20 21  1  0
 20 22  1  0
 20 23  1  0
 23 24  1  0
 23 25  1  0
 23 26  1  0
 26 27  1  0
 26 28  1  0
  2 29  1  0
 29 30  4  0
 30 31  1  0
 30 32  4  0
 32 33  1  0
 32 34  4  0
 34 35  1  0
 35 36  1  0
 36 37  1  6
 36 38  1  0
 38 39  1  0
 38 40  1  0
 38 41  1  0
 41 42  1  0
 41 43  1  0
 41 44  1  0
 44 45  1  0
 45 46  1  0
 45 47  1  0
 47 48  1  0
 48 49  4  0
 49 50  1  0
 49 51  4  0
 51 52  1  0
 51 53  4  0
 53 54  1  0
 53 55  4  0
 55 56  1  0
 55 57  4  0
 57 58  1  0
 47 59  1  0
 47 60  1  0
 45 61  1  0
 44 62  1  0
 62 63  1  0
 62 64  1  0
 62 65  1  0
 65 66  1  0
 65 67  1  0
 34 68  4  0
 68 69  1  0
 68 70  4  0
 70 71  1  0
 26  3  1  0
 70 29  4  0
 65 36  1  0
 57 48  4  0
M  END
>  <sample_id>  (170)
train::O=C(c1ccc(OC2CCN(CCc3ccccc3)CC2)cc1)N1CCCCC1CCCO__gen0001

>  <partition>  (170)
BAT_EXTERNAL_CONFIRM

>  <method>  (170)
BA_seed193

>  <candidate>  (170)
primary

$$$$
train::O=C(c1ccc(OC2CCN(CCc3ccccc3)CC2)cc1)N1CCCCC1CCCO__gen0002
     RDKit          3D

 71 74  0  0  0  0  0  0  0  0999 V2000
    0.2658   -0.1740   -3.4325 O   0  0  0  0  0  0  0  0  0  0  0  0
    0.1758    0.7364   -2.6178 C   0  0  0  0  0  0  0  0  0  1  0  0
    0.4589    2.0177   -2.9624 N   0  0  0  0  0  0  0  0  0  2  0  0
    0.1275    3.1652   -2.1387 C   0  0  2  0  0  0  0  0  0  3  0  0
   -0.0893    2.8136   -1.1257 H   0  0  0  0  0  0  0  0  0  4  0  0
   -1.1381    3.8729   -2.6579 C   0  0  0  0  0  0  0  0  0 17  0  0
   -2.3359    2.9302   -2.6944 C   0  0  0  0  0  0  0  0  0 18  0  0
   -3.5721    3.6091   -3.3091 C   0  0  0  0  0  0  0  0  0 19  0  0
   -4.6852    2.7475   -3.3125 O   0  0  0  0  0  0  0  0  0 20  0  0
   -4.4226    1.9363   -3.7825 H   0  0  0  0  0  0  0  0  0 21  0  0
   -3.8649    4.4797   -2.7199 H   0  0  0  0  0  0  0  0  0 22  0  0
   -3.3380    3.9370   -4.3305 H   0  0  0  0  0  0  0  0  0 23  0  0
   -2.0911    2.0462   -3.2809 H   0  0  0  0  0  0  0  0  0 24  0  0
   -2.5874    2.6163   -1.6719 H   0  0  0  0  0  0  0  0  0 25  0  0
   -0.9735    4.3074   -3.6405 H   0  0  0  0  0  0  0  0  0 26  0  0
   -1.3554    4.7155   -1.9882 H   0  0  0  0  0  0  0  0  0 27  0  0
    1.3603    4.0729   -2.0558 C   0  0  0  0  0  0  0  0  0  5  0  0
    2.1398    3.5390   -1.5100 H   0  0  0  0  0  0  0  0  0 15  0  0
    1.1058    4.9662   -1.4952 H   0  0  0  0  0  0  0  0  0 16  0  0
    1.9035    4.4401   -3.4371 C   0  0  0  0  0  0  0  0  0  6  0  0
    2.8314    5.0097   -3.3171 H   0  0  0  0  0  0  0  0  0 13  0  0
    1.1919    5.0606   -3.9715 H   0  0  0  0  0  0  0  0  0 14  0  0
    2.2045    3.1548   -4.2155 C   0  0  0  0  0  0  0  0  0  7  0  0
    2.5473    3.3974   -5.2283 H   0  0  0  0  0  0  0  0  0 11  0  0
    2.9821    2.5753   -3.7287 H   0  0  0  0  0  0  0  0  0 12  0  0
    0.9380    2.3061   -4.2962 C   0  0  0  0  0  0  0  0  0  8  0  0
    1.1318    1.3554   -4.7816 H   0  0  0  0  0  0  0  0  0  9  0  0
    0.1699    2.8430   -4.8682 H   0  0  0  0  0  0  0  0  0 10  0  0
   -0.2450    0.4899   -1.1953 C   0  0  0  0  0  0  0  0  0 28  0  0
   -1.4722   -0.0993   -0.9429 C   0  0  0  0  0  0  0  0  0 29  0  0
   -2.1412   -0.3320   -1.7549 H   0  0  0  0  0  0  0  0  0 70  0  0
   -1.8778   -0.3618    0.3463 C   0  0  0  0  0  0  0  0  0 30  0  0
   -2.8347   -0.8070    0.5631 H   0  0  0  0  0  0  0  0  0 69  0  0
   -1.0032   -0.0990    1.4149 C   0  0  0  0  0  0  0  0  0 31  0  0
   -1.4466   -0.3670    2.6188 O   0  0  0  0  0  0  0  0  0 36  0  0
   -0.7961   -0.2862    3.8618 C   0  0  1  0  0  0  0  0  0 37  0  0
   -0.9054    0.7878    4.1272 H   0  0  0  0  0  0  0  0  0 68  0  0
   -1.4769   -1.3352    4.7414 C   0  0  0  0  0  0  0  0  0 38  0  0
   -2.5623   -1.2508    4.6313 H   0  0  0  0  0  0  0  0  0 66  0  0
   -1.2448   -1.1227    5.7838 H   0  0  0  0  0  0  0  0  0 67  0  0
   -1.0668   -2.7357    4.3266 C   0  0  0  0  0  0  0  0  0 39  0  0
   -1.5027   -2.9544    3.3409 H   0  0  0  0  0  0  0  0  0 64  0  0
   -1.4823   -3.4513    5.0417 H   0  0  0  0  0  0  0  0  0 65  0  0
    0.3710   -2.8957    4.3392 N   0  0  0  0  0  0  0  0  0 40  0  0
    0.8564   -4.2552    4.0888 C   0  0  0  0  0  0  0  0  0 41  0  0
    0.4521   -4.8782    4.8823 H   0  0  0  0  0  0  0  0  0 42  0  0
    0.4692   -4.9267    2.7670 C   0  0  0  0  0  0  0  0  0 43  0  0
    0.9710   -4.2724    1.4889 C   0  0  0  0  0  0  0  0  0 44  0  0
    2.3291   -4.0249    1.2856 C   0  0  0  0  0  0  0  0  0 45  0  0
    3.0523   -4.3614    2.0146 H   0  0  0  0  0  0  0  0  0 54  0  0
    2.7409   -3.3999    0.1188 C   0  0  0  0  0  0  0  0  0 46  0  0
    3.7989   -3.2141   -0.0458 H   0  0  0  0  0  0  0  0  0 53  0  0
    1.8087   -2.9484   -0.8159 C   0  0  0  0  0  0  0  0  0 47  0  0
    2.1325   -2.4475   -1.7147 H   0  0  0  0  0  0  0  0  0 52  0  0
    0.4624   -3.1671   -0.6008 C   0  0  0  0  0  0  0  0  0 48  0  0
   -0.2610   -2.8496   -1.3328 H   0  0  0  0  0  0  0  0  0 51  0  0
    0.0546   -3.8277    0.5396 C   0  0  0  0  0  0  0  0  0 49  0  0
   -0.9733   -4.0502    0.7222 H   0  0  0  0  0  0  0  0  0 50  0  0
    0.8722   -5.9422    2.7773 H   0  0  0  0  0  0  0  0  0 55  0  0
   -0.5982   -5.0178    2.6893 H   0  0  0  0  0  0  0  0  0 56  0  0
    1.9458   -4.2308    4.1889 H   0  0  0  0  0  0  0  0  0 57  0  0
    1.0624   -1.9573    3.4928 C   0  0  0  0  0  0  0  0  0 58  0  0
    0.8272   -2.0739    2.4233 H   0  0  0  0  0  0  0  0  0 62  0  0
    2.1355   -2.1344    3.5872 H   0  0  0  0  0  0  0  0  0 63  0  0
    0.7194   -0.5351    3.9335 C   0  0  0  0  0  0  0  0  0 59  0  0
    1.2348    0.1815    3.2765 H   0  0  0  0  0  0  0  0  0 60  0  0
    1.0631   -0.3516    4.9540 H   0  0  0  0  0  0  0  0  0 61  0  0
    0.2587    0.4640    1.1542 C   0  0  0  0  0  0  0  0  0 32  0  0
    0.9642    0.6690    1.9417 H   0  0  0  0  0  0  0  0  0 35  0  0
    0.6346    0.7372   -0.1405 C   0  0  0  0  0  0  0  0  0 33  0  0
    1.5926    1.1575   -0.3494 H   0  0  0  0  0  0  0  0  0 34  0  0
  1  2  2  0
  2  3  1  0
  3  4  1  0
  4  5  1  1
  4  6  1  0
  6  7  1  0
  7  8  1  0
  8  9  1  0
  9 10  1  0
  8 11  1  0
  8 12  1  0
  7 13  1  0
  7 14  1  0
  6 15  1  0
  6 16  1  0
  4 17  1  0
 17 18  1  0
 17 19  1  0
 17 20  1  0
 20 21  1  0
 20 22  1  0
 20 23  1  0
 23 24  1  0
 23 25  1  0
 23 26  1  0
 26 27  1  0
 26 28  1  0
  2 29  1  0
 29 30  4  0
 30 31  1  0
 30 32  4  0
 32 33  1  0
 32 34  4  0
 34 35  1  0
 35 36  1  0
 36 37  1  1
 36 38  1  0
 38 39  1  0
 38 40  1  0
 38 41  1  0
 41 42  1  0
 41 43  1  0
 41 44  1  0
 44 45  1  0
 45 46  1  0
 45 47  1  0
 47 48  1  0
 48 49  4  0
 49 50  1  0
 49 51  4  0
 51 52  1  0
 51 53  4  0
 53 54  1  0
 53 55  4  0
 55 56  1  0
 55 57  4  0
 57 58  1  0
 47 59  1  0
 47 60  1  0
 45 61  1  0
 44 62  1  0
 62 63  1  0
 62 64  1  0
 62 65  1  0
 65 66  1  0
 65 67  1  0
 34 68  4  0
 68 69  1  0
 68 70  4  0
 70 71  1  0
 26  3  1  0
 70 29  4  0
 65 36  1  0
 57 48  4  0
M  END
>  <sample_id>  (171)
train::O=C(c1ccc(OC2CCN(CCc3ccccc3)CC2)cc1)N1CCCCC1CCCO__gen0002

>  <partition>  (171)
BAT_EXTERNAL_CONFIRM

>  <method>  (171)
BA_seed193

>  <candidate>  (171)
primary

$$$$
train::O=C(O)c1cc2ccccc2c(Cc2c([O-])c(C(=O)O)cc3ccccc23)c1[O-]__gen0000
     RDKit          3D

 43 46  0  0  0  0  0  0  0  0999 V2000
   -0.8000    5.5666   -0.6601 O   0  0  0  0  0  0  0  0  0  0  0  0
   -0.6244    5.1223    0.5099 C   0  0  0  0  0  0  0  0  0  1  0  0
   -0.3339    5.8042    1.5096 O   0  0  0  0  0  0  0  0  0  2  0  0
   -0.8250    3.6034    0.7445 C   0  0  0  0  0  0  0  0  0  3  0  0
   -1.0243    3.1210    2.0080 C   0  0  0  0  0  0  0  0  0  4  0  0
   -1.0113    3.8013    2.8410 H   0  0  0  0  0  0  0  0  0 42  0  0
   -1.2065    1.7372    2.2207 C   0  0  0  0  0  0  0  0  0  5  0  0
   -1.3971    1.2261    3.5142 C   0  0  0  0  0  0  0  0  0  6  0  0
   -1.3868    1.9088    4.3522 H   0  0  0  0  0  0  0  0  0 41  0  0
   -1.5842   -0.1156    3.7159 C   0  0  0  0  0  0  0  0  0  7  0  0
   -1.7293   -0.4933    4.7343 H   0  0  0  0  0  0  0  0  0 40  0  0
   -1.6007   -0.9898    2.6308 C   0  0  0  0  0  0  0  0  0  8  0  0
   -1.7635   -2.0407    2.7933 H   0  0  0  0  0  0  0  0  0 39  0  0
   -1.4036   -0.5237    1.3526 C   0  0  0  0  0  0  0  0  0  9  0  0
   -1.4166   -1.2146    0.5311 H   0  0  0  0  0  0  0  0  0 38  0  0
   -1.2043    0.8524    1.1083 C   0  0  0  0  0  0  0  0  0 10  0  0
   -0.9840    1.3748   -0.2027 C   0  0  0  0  0  0  0  0  0 11  0  0
   -0.8781    0.4725   -1.3899 C   0  0  0  0  0  0  0  0  0 15  0  0
    0.2831   -0.5017   -1.2499 C   0  0  0  0  0  0  0  0  0 16  0  0
    1.5150   -0.0064   -0.8162 C   0  0  0  0  0  0  0  0  0 17  0  0
    1.6557    1.2978   -0.5882 O   0  0  0  0  0  0  0  0  0 34  0  0
    2.5865    1.4948   -0.3725 H   0  0  0  0  0  0  0  0  0 35  0  0
    2.6066   -0.8848   -0.6288 C   0  0  0  0  0  0  0  0  0 18  0  0
    3.9443   -0.3274   -0.0694 C   0  0  0  0  0  0  0  0  0 31  0  0
    4.2820    0.8200   -0.4269 O   0  0  0  0  0  0  0  0  0 32  0  0
    4.5904   -1.0606    0.6820 O   0  0  0  0  0  0  0  0  0 33  0  0
    2.4981   -2.2029   -0.9339 C   0  0  0  0  0  0  0  0  0 19  0  0
    3.3627   -2.8597   -0.7963 H   0  0  0  0  0  0  0  0  0 30  0  0
    1.2870   -2.7374   -1.4163 C   0  0  0  0  0  0  0  0  0 20  0  0
    1.1814   -4.1091   -1.7293 C   0  0  0  0  0  0  0  0  0 21  0  0
    2.0636   -4.7322   -1.6056 H   0  0  0  0  0  0  0  0  0 29  0  0
   -0.0081   -4.6374   -2.1455 C   0  0  0  0  0  0  0  0  0 22  0  0
   -0.0626   -5.6889   -2.3828 H   0  0  0  0  0  0  0  0  0 28  0  0
   -1.1209   -3.8141   -2.2766 C   0  0  0  0  0  0  0  0  0 23  0  0
   -2.0650   -4.2286   -2.6183 H   0  0  0  0  0  0  0  0  0 27  0  0
   -1.0396   -2.4784   -1.9932 C   0  0  0  0  0  0  0  0  0 24  0  0
   -1.9314   -1.8665   -2.1050 H   0  0  0  0  0  0  0  0  0 26  0  0
    0.1612   -1.8910   -1.5291 C   0  0  0  0  0  0  0  0  0 25  0  0
   -0.7033    1.0770   -2.2745 H   0  0  0  0  0  0  0  0  0 36  0  0
   -1.8284   -0.0440   -1.5110 H   0  0  0  0  0  0  0  0  0 37  0  0
   -0.8410    2.7412   -0.3728 C   0  0  0  0  0  0  0  0  0 12  0  0
   -0.6422    3.2165   -1.6075 O   0  0  0  0  0  0  0  0  0 13  0  0
   -0.6016    4.2105   -1.5463 H   0  0  0  0  0  0  0  0  0 14  0  0
  1  2  2  0
  2  3  1  0
  2  4  1  0
  4  5  4  0
  5  6  1  0
  5  7  4  0
  7  8  4  0
  8  9  1  0
  8 10  4  0
 10 11  1  0
 10 12  4  0
 12 13  1  0
 12 14  4  0
 14 15  1  0
 14 16  4  0
 16 17  4  0
 17 18  1  0
 18 19  1  0
 19 20  4  0
 20 21  1  0
 21 22  1  0
 20 23  4  0
 23 24  1  0
 24 25  2  0
 24 26  1  0
 23 27  4  0
 27 28  1  0
 27 29  4  0
 29 30  4  0
 30 31  1  0
 30 32  4  0
 32 33  1  0
 32 34  4  0
 34 35  1  0
 34 36  4  0
 36 37  1  0
 36 38  4  0
 18 39  1  0
 18 40  1  0
 17 41  4  0
 41 42  1  0
 42 43  1  0
 41  4  4  0
 16  7  4  0
 38 19  4  0
 38 29  4  0
M  CHG  2   3  -1  26  -1
M  END
>  <sample_id>  (172)
train::O=C(O)c1cc2ccccc2c(Cc2c([O-])c(C(=O)O)cc3ccccc23)c1[O-]__gen0000

>  <partition>  (172)
BAT_EXTERNAL_CONFIRM

>  <method>  (172)
BA_seed193

>  <candidate>  (172)
primary

$$$$
train::O=C(O)c1cc2ccccc2c(Cc2c([O-])c(C(=O)O)cc3ccccc23)c1[O-]__gen0001
     RDKit          3D

 43 46  0  0  0  0  0  0  0  0999 V2000
   -2.0069   -3.3869   -3.2126 O   0  0  0  0  0  0  0  0  0  0  0  0
   -1.3518   -2.3527   -3.0684 C   0  0  0  0  0  0  0  0  0  1  0  0
   -1.3236   -1.3596   -3.8284 O   0  0  0  0  0  0  0  0  0  2  0  0
   -0.4226   -2.2901   -1.8257 C   0  0  0  0  0  0  0  0  0  3  0  0
   -0.1133   -3.4520   -1.1599 C   0  0  0  0  0  0  0  0  0  4  0  0
   -0.5514   -4.3813   -1.4964 H   0  0  0  0  0  0  0  0  0 42  0  0
    0.7261   -3.4301   -0.0351 C   0  0  0  0  0  0  0  0  0  5  0  0
    1.0419   -4.6274    0.6490 C   0  0  0  0  0  0  0  0  0  6  0  0
    0.6120   -5.5533    0.3015 H   0  0  0  0  0  0  0  0  0 41  0  0
    1.8514   -4.6091    1.7523 C   0  0  0  0  0  0  0  0  0  7  0  0
    2.0935   -5.5344    2.2730 H   0  0  0  0  0  0  0  0  0 40  0  0
    2.3900   -3.3960    2.1989 C   0  0  0  0  0  0  0  0  0  8  0  0
    3.0171   -3.3970    3.0770 H   0  0  0  0  0  0  0  0  0 39  0  0
    2.0955   -2.2227    1.5631 C   0  0  0  0  0  0  0  0  0  9  0  0
    2.5206   -1.3056    1.9382 H   0  0  0  0  0  0  0  0  0 38  0  0
    1.2708   -2.1994    0.4300 C   0  0  0  0  0  0  0  0  0 10  0  0
    0.9457   -1.0125   -0.2849 C   0  0  0  0  0  0  0  0  0 11  0  0
    1.4251    0.3526    0.1541 C   0  0  0  0  0  0  0  0  0 15  0  0
    0.2526    1.2805    0.3911 C   0  0  0  0  0  0  0  0  0 16  0  0
   -0.7596    0.8473    1.2263 C   0  0  0  0  0  0  0  0  0 17  0  0
   -0.6376   -0.3464    1.8546 O   0  0  0  0  0  0  0  0  0 34  0  0
   -1.4607   -0.5223    2.3355 H   0  0  0  0  0  0  0  0  0 35  0  0
   -1.9146    1.6415    1.4352 C   0  0  0  0  0  0  0  0  0 18  0  0
   -3.0770    1.2247    2.3903 C   0  0  0  0  0  0  0  0  0 31  0  0
   -4.2249    1.4132    1.9795 O   0  0  0  0  0  0  0  0  0 32  0  0
   -2.7782    0.7933    3.5236 O   0  0  0  0  0  0  0  0  0 33  0  0
   -2.0067    2.8717    0.8585 C   0  0  0  0  0  0  0  0  0 19  0  0
   -2.9041    3.4577    1.0412 H   0  0  0  0  0  0  0  0  0 30  0  0
   -0.9776    3.3697    0.0361 C   0  0  0  0  0  0  0  0  0 20  0  0
   -1.0958    4.6460   -0.5614 C   0  0  0  0  0  0  0  0  0 21  0  0
   -1.9849    5.2247   -0.3789 H   0  0  0  0  0  0  0  0  0 29  0  0
   -0.0946    5.1151   -1.3815 C   0  0  0  0  0  0  0  0  0 22  0  0
   -0.1879    6.0894   -1.8474 H   0  0  0  0  0  0  0  0  0 28  0  0
    1.0378    4.3467   -1.6193 C   0  0  0  0  0  0  0  0  0 23  0  0
    1.8105    4.7119   -2.2692 H   0  0  0  0  0  0  0  0  0 27  0  0
    1.1838    3.1092   -1.0447 C   0  0  0  0  0  0  0  0  0 24  0  0
    2.0518    2.5164   -1.2642 H   0  0  0  0  0  0  0  0  0 26  0  0
    0.1722    2.5732   -0.1968 C   0  0  0  0  0  0  0  0  0 25  0  0
    2.0642    0.7445   -0.6353 H   0  0  0  0  0  0  0  0  0 36  0  0
    2.0203    0.2921    1.0637 H   0  0  0  0  0  0  0  0  0 37  0  0
    0.1339   -1.0713   -1.4089 C   0  0  0  0  0  0  0  0  0 12  0  0
   -0.1488    0.0579   -2.0822 O   0  0  0  0  0  0  0  0  0 13  0  0
   -0.6942   -0.2293   -2.8717 H   0  0  0  0  0  0  0  0  0 14  0  0
  1  2  2  0
  2  3  1  0
  2  4  1  0
  4  5  4  0
  5  6  1  0
  5  7  4  0
  7  8  4  0
  8  9  1  0
  8 10  4  0
 10 11  1  0
 10 12  4  0
 12 13  1  0
 12 14  4  0
 14 15  1  0
 14 16  4  0
 16 17  4  0
 17 18  1  0
 18 19  1  0
 19 20  4  0
 20 21  1  0
 21 22  1  0
 20 23  4  0
 23 24  1  0
 24 25  2  0
 24 26  1  0
 23 27  4  0
 27 28  1  0
 27 29  4  0
 29 30  4  0
 30 31  1  0
 30 32  4  0
 32 33  1  0
 32 34  4  0
 34 35  1  0
 34 36  4  0
 36 37  1  0
 36 38  4  0
 18 39  1  0
 18 40  1  0
 17 41  4  0
 41 42  1  0
 42 43  1  0
 41  4  4  0
 16  7  4  0
 38 19  4  0
 38 29  4  0
M  CHG  2   3  -1  26  -1
M  END
>  <sample_id>  (173)
train::O=C(O)c1cc2ccccc2c(Cc2c([O-])c(C(=O)O)cc3ccccc23)c1[O-]__gen0001

>  <partition>  (173)
BAT_EXTERNAL_CONFIRM

>  <method>  (173)
BA_seed193

>  <candidate>  (173)
primary

$$$$
train::O=C(O)c1cc2ccccc2c(Cc2c([O-])c(C(=O)O)cc3ccccc23)c1[O-]__gen0002
     RDKit          3D

 43 46  0  0  0  0  0  0  0  0999 V2000
    1.7803    0.4803    3.8110 O   0  0  0  0  0  0  0  0  0  0  0  0
    1.0718    1.4708    3.5888 C   0  0  0  0  0  0  0  0  0  1  0  0
    1.1589    2.5836    4.1390 O   0  0  0  0  0  0  0  0  0  2  0  0
   -0.0772    1.3105    2.5469 C   0  0  0  0  0  0  0  0  0  3  0  0
   -1.0793    2.2433    2.5268 C   0  0  0  0  0  0  0  0  0  4  0  0
   -1.0446    3.0603    3.2493 H   0  0  0  0  0  0  0  0  0 42  0  0
   -2.1200    2.1574    1.5892 C   0  0  0  0  0  0  0  0  0  5  0  0
   -3.1341    3.1344    1.5498 C   0  0  0  0  0  0  0  0  0  6  0  0
   -3.0971    3.9525    2.2568 H   0  0  0  0  0  0  0  0  0 41  0  0
   -4.1314    3.0711    0.6135 C   0  0  0  0  0  0  0  0  0  7  0  0
   -4.9085    3.8205    0.5935 H   0  0  0  0  0  0  0  0  0 40  0  0
   -4.1516    2.0208   -0.2950 C   0  0  0  0  0  0  0  0  0  8  0  0
   -4.9426    1.9812   -1.0387 H   0  0  0  0  0  0  0  0  0 39  0  0
   -3.1713    1.0507   -0.2825 C   0  0  0  0  0  0  0  0  0  9  0  0
   -3.2279    0.2661   -1.0213 H   0  0  0  0  0  0  0  0  0 38  0  0
   -2.1256    1.0807    0.6606 C   0  0  0  0  0  0  0  0  0 10  0  0
   -1.0968    0.1088    0.7194 C   0  0  0  0  0  0  0  0  0 11  0  0
   -1.1263   -1.1195   -0.1734 C   0  0  0  0  0  0  0  0  0 15  0  0
    0.2187   -1.5219   -0.7049 C   0  0  0  0  0  0  0  0  0 16  0  0
    0.6978   -2.7967   -0.4408 C   0  0  0  0  0  0  0  0  0 17  0  0
   -0.0862   -3.6698    0.2118 O   0  0  0  0  0  0  0  0  0 34  0  0
    0.4244   -4.4661    0.4168 H   0  0  0  0  0  0  0  0  0 35  0  0
    1.9897   -3.1775   -0.8690 C   0  0  0  0  0  0  0  0  0 18  0  0
    2.5706   -4.5730   -0.4963 C   0  0  0  0  0  0  0  0  0 31  0  0
    1.9104   -5.3012    0.2398 O   0  0  0  0  0  0  0  0  0 32  0  0
    3.6734   -4.8165   -0.9953 O   0  0  0  0  0  0  0  0  0 33  0  0
    2.7518   -2.3033   -1.5937 C   0  0  0  0  0  0  0  0  0 19  0  0
    3.7160   -2.6334   -1.9028 H   0  0  0  0  0  0  0  0  0 30  0  0
    2.2878   -1.0182   -1.9063 C   0  0  0  0  0  0  0  0  0 20  0  0
    3.0659   -0.1240   -2.6720 C   0  0  0  0  0  0  0  0  0 21  0  0
    4.0508   -0.4323   -2.9999 H   0  0  0  0  0  0  0  0  0 29  0  0
    2.5930    1.1374   -2.9691 C   0  0  0  0  0  0  0  0  0 22  0  0
    3.2077    1.8157   -3.5390 H   0  0  0  0  0  0  0  0  0 28  0  0
    1.3309    1.5200   -2.5268 C   0  0  0  0  0  0  0  0  0 23  0  0
    0.9634    2.5048   -2.7758 H   0  0  0  0  0  0  0  0  0 27  0  0
    0.5482    0.6651   -1.7937 C   0  0  0  0  0  0  0  0  0 24  0  0
   -0.4208    0.9894   -1.4731 H   0  0  0  0  0  0  0  0  0 26  0  0
    0.9922   -0.6293   -1.4732 C   0  0  0  0  0  0  0  0  0 25  0  0
   -1.5207   -1.9683    0.3975 H   0  0  0  0  0  0  0  0  0 36  0  0
   -1.8139   -0.9656   -1.0073 H   0  0  0  0  0  0  0  0  0 37  0  0
   -0.0750    0.2415    1.6450 C   0  0  0  0  0  0  0  0  0 12  0  0
    0.9017   -0.6737    1.6958 O   0  0  0  0  0  0  0  0  0 13  0  0
    1.4455   -0.4766    2.4983 H   0  0  0  0  0  0  0  0  0 14  0  0
  1  2  2  0
  2  3  1  0
  2  4  1  0
  4  5  4  0
  5  6  1  0
  5  7  4  0
  7  8  4  0
  8  9  1  0
  8 10  4  0
 10 11  1  0
 10 12  4  0
 12 13  1  0
 12 14  4  0
 14 15  1  0
 14 16  4  0
 16 17  4  0
 17 18  1  0
 18 19  1  0
 19 20  4  0
 20 21  1  0
 21 22  1  0
 20 23  4  0
 23 24  1  0
 24 25  2  0
 24 26  1  0
 23 27  4  0
 27 28  1  0
 27 29  4  0
 29 30  4  0
 30 31  1  0
 30 32  4  0
 32 33  1  0
 32 34  4  0
 34 35  1  0
 34 36  4  0
 36 37  1  0
 36 38  4  0
 18 39  1  0
 18 40  1  0
 17 41  4  0
 41 42  1  0
 42 43  1  0
 41  4  4  0
 16  7  4  0
 38 19  4  0
 38 29  4  0
M  CHG  2   3  -1  26  -1
M  END
>  <sample_id>  (174)
train::O=C(O)c1cc2ccccc2c(Cc2c([O-])c(C(=O)O)cc3ccccc23)c1[O-]__gen0002

>  <partition>  (174)
BAT_EXTERNAL_CONFIRM

>  <method>  (174)
BA_seed193

>  <candidate>  (174)
primary

$$$$
train::Cc1cc(C)c(C#N)c(N2CCN(c3ccccc3F)CC2)n1__gen0000
     RDKit          3D

 42 44  0  0  0  0  0  0  0  0999 V2000
   -3.5513   -2.7620   -2.0570 C   0  0  0  0  0  0  0  0  0  0  0  0
   -2.0816   -2.5009   -2.0474 C   0  0  0  0  0  0  0  0  0  1  0  0
   -1.6097   -1.7672   -1.0773 N   0  0  0  0  0  0  0  0  0  2  0  0
   -0.3209   -1.4697   -0.9715 C   0  0  0  0  0  0  0  0  0  3  0  0
    0.0163   -0.7589    0.1266 N   0  0  0  0  0  0  0  0  0  4  0  0
   -1.0166   -0.0742    0.8778 C   0  0  0  0  0  0  0  0  0  5  0  0
   -0.8343   -0.2015    1.9497 H   0  0  0  0  0  0  0  0  0  6  0  0
   -1.9864   -0.5079    0.6275 H   0  0  0  0  0  0  0  0  0 28  0  0
   -1.0020    1.4213    0.5292 C   0  0  0  0  0  0  0  0  0  7  0  0
   -1.7773    1.9367    1.0947 H   0  0  0  0  0  0  0  0  0 26  0  0
   -1.2022    1.5413   -0.5380 H   0  0  0  0  0  0  0  0  0 27  0  0
    0.2989    1.9956    0.8201 N   0  0  0  0  0  0  0  0  0  8  0  0
    0.5542    2.5588    2.0704 C   0  0  0  0  0  0  0  0  0  9  0  0
   -0.3174    3.5181    2.6222 C   0  0  0  0  0  0  0  0  0 10  0  0
   -1.4395    3.8807    1.9550 F   0  0  0  0  0  0  0  0  0 19  0  0
   -0.0539    4.1488    3.8209 C   0  0  0  0  0  0  0  0  0 11  0  0
   -0.7771    4.8663    4.1769 H   0  0  0  0  0  0  0  0  0 18  0  0
    1.0991    3.8556    4.5172 C   0  0  0  0  0  0  0  0  0 12  0  0
    1.3000    4.3504    5.4546 H   0  0  0  0  0  0  0  0  0 17  0  0
    1.9959    2.9456    3.9787 C   0  0  0  0  0  0  0  0  0 13  0  0
    2.9065    2.7085    4.5087 H   0  0  0  0  0  0  0  0  0 16  0  0
    1.7242    2.3077    2.7860 C   0  0  0  0  0  0  0  0  0 14  0  0
    2.4351    1.5986    2.4189 H   0  0  0  0  0  0  0  0  0 15  0  0
    1.3344    1.2806    0.1173 C   0  0  0  0  0  0  0  0  0 20  0  0
    1.1447    1.3867   -0.9561 H   0  0  0  0  0  0  0  0  0 21  0  0
    2.3120    1.7261    0.3303 H   0  0  0  0  0  0  0  0  0 25  0  0
    1.3112   -0.2153    0.4625 C   0  0  0  0  0  0  0  0  0 22  0  0
    1.5021   -0.3409    1.5356 H   0  0  0  0  0  0  0  0  0 23  0  0
    2.1019   -0.7512   -0.0804 H   0  0  0  0  0  0  0  0  0 24  0  0
    0.5933   -1.9743   -1.9484 C   0  0  0  0  0  0  0  0  0 29  0  0
    1.9838   -1.7121   -1.9732 C   0  0  0  0  0  0  0  0  0 30  0  0
    3.1139   -1.5516   -2.1180 N   0  0  0  0  0  0  0  0  0 31  0  0
    0.0954   -2.7548   -2.9998 C   0  0  0  0  0  0  0  0  0 32  0  0
    1.0292   -3.2837   -4.0360 C   0  0  0  0  0  0  0  0  0 35  0  0
    0.4932   -3.9038   -4.7561 H   0  0  0  0  0  0  0  0  0 36  0  0
    1.5206   -2.4688   -4.5702 H   0  0  0  0  0  0  0  0  0 37  0  0
    1.8189   -3.8698   -3.5834 H   0  0  0  0  0  0  0  0  0 38  0  0
   -1.2621   -3.0187   -3.0407 C   0  0  0  0  0  0  0  0  0 33  0  0
   -1.6784   -3.6229   -3.8255 H   0  0  0  0  0  0  0  0  0 34  0  0
   -3.7449   -3.8334   -1.9742 H   0  0  0  0  0  0  0  0  0 39  0  0
   -3.9973   -2.4349   -2.9979 H   0  0  0  0  0  0  0  0  0 40  0  0
   -4.0319   -2.2487   -1.2297 H   0  0  0  0  0  0  0  0  0 41  0  0
  1  2  1  0
  2  3  4  0
  3  4  4  0
  4  5  1  0
  5  6  1  0
  6  7  1  0
  6  8  1  0
  6  9  1  0
  9 10  1  0
  9 11  1  0
  9 12  1  0
 12 13  1  0
 13 14  4  0
 14 15  1  0
 14 16  4  0
 16 17  1  0
 16 18  4  0
 18 19  1  0
 18 20  4  0
 20 21  1  0
 20 22  4  0
 22 23  1  0
 12 24  1  0
 24 25  1  0
 24 26  1  0
 24 27  1  0
 27 28  1  0
 27 29  1  0
  4 30  4  0
 30 31  1  0
 31 32  3  0
 30 33  4  0
 33 34  1  0
 34 35  1  0
 34 36  1  0
 34 37  1  0
 33 38  4  0
 38 39  1  0
  1 40  1  0
  1 41  1  0
  1 42  1  0
 38  2  4  0
 27  5  1  0
 22 13  4  0
M  END
>  <sample_id>  (175)
train::Cc1cc(C)c(C#N)c(N2CCN(c3ccccc3F)CC2)n1__gen0000

>  <partition>  (175)
BAT_EXTERNAL_CONFIRM

>  <method>  (175)
BA_seed193

>  <candidate>  (175)
primary

$$$$
train::Cc1cc(C)c(C#N)c(N2CCN(c3ccccc3F)CC2)n1__gen0001
     RDKit          3D

 42 44  0  0  0  0  0  0  0  0999 V2000
    1.0086    4.8087   -1.3140 C   0  0  0  0  0  0  0  0  0  0  0  0
    1.4392    3.6380   -0.4827 C   0  0  0  0  0  0  0  0  0  1  0  0
    0.8581    2.4952   -0.7322 N   0  0  0  0  0  0  0  0  0  2  0  0
    1.1927    1.3744   -0.0593 C   0  0  0  0  0  0  0  0  0  3  0  0
    0.5978    0.2538   -0.5154 N   0  0  0  0  0  0  0  0  0  4  0  0
    0.8455   -1.0911   -0.0458 C   0  0  0  0  0  0  0  0  0  5  0  0
    0.8174   -1.7678   -0.9134 H   0  0  0  0  0  0  0  0  0  6  0  0
    1.8227   -1.1681    0.4354 H   0  0  0  0  0  0  0  0  0 28  0  0
   -0.2744   -1.5031    0.9280 C   0  0  0  0  0  0  0  0  0  7  0  0
   -0.2835   -0.8259    1.7855 H   0  0  0  0  0  0  0  0  0 26  0  0
   -0.0898   -2.5142    1.2802 H   0  0  0  0  0  0  0  0  0 27  0  0
   -1.5584   -1.4275    0.2575 N   0  0  0  0  0  0  0  0  0  8  0  0
   -2.1398   -2.5682   -0.2616 C   0  0  0  0  0  0  0  0  0  9  0  0
   -2.7481   -2.6594   -1.5267 C   0  0  0  0  0  0  0  0  0 10  0  0
   -2.7249   -1.6309   -2.4035 F   0  0  0  0  0  0  0  0  0 19  0  0
   -3.3749   -3.8089   -1.9669 C   0  0  0  0  0  0  0  0  0 11  0  0
   -3.8162   -3.8118   -2.9484 H   0  0  0  0  0  0  0  0  0 18  0  0
   -3.4135   -4.9309   -1.1625 C   0  0  0  0  0  0  0  0  0 12  0  0
   -3.9003   -5.8371   -1.4994 H   0  0  0  0  0  0  0  0  0 17  0  0
   -2.8279   -4.8742    0.0918 C   0  0  0  0  0  0  0  0  0 13  0  0
   -2.8344   -5.7413    0.7365 H   0  0  0  0  0  0  0  0  0 16  0  0
   -2.2093   -3.7189    0.5219 C   0  0  0  0  0  0  0  0  0 14  0  0
   -1.7816   -3.6999    1.5153 H   0  0  0  0  0  0  0  0  0 15  0  0
   -1.7850   -0.1089   -0.2981 C   0  0  0  0  0  0  0  0  0 20  0  0
   -2.7432   -0.0639   -0.8168 H   0  0  0  0  0  0  0  0  0 21  0  0
   -1.8197    0.5983    0.5438 H   0  0  0  0  0  0  0  0  0 25  0  0
   -0.6582    0.3380   -1.2360 C   0  0  0  0  0  0  0  0  0 22  0  0
   -0.6085   -0.3210   -2.1128 H   0  0  0  0  0  0  0  0  0 23  0  0
   -0.7831    1.3638   -1.5695 H   0  0  0  0  0  0  0  0  0 24  0  0
    2.1556    1.4502    0.9893 C   0  0  0  0  0  0  0  0  0 29  0  0
    2.4183    0.3982    1.8909 C   0  0  0  0  0  0  0  0  0 30  0  0
    2.6116   -0.4184    2.6792 N   0  0  0  0  0  0  0  0  0 31  0  0
    2.7601    2.6828    1.2558 C   0  0  0  0  0  0  0  0  0 32  0  0
    3.7636    2.7940    2.3689 C   0  0  0  0  0  0  0  0  0 35  0  0
    3.3517    2.4239    3.3069 H   0  0  0  0  0  0  0  0  0 36  0  0
    4.0859    3.8289    2.5068 H   0  0  0  0  0  0  0  0  0 37  0  0
    4.6422    2.1781    2.1572 H   0  0  0  0  0  0  0  0  0 38  0  0
    2.4112    3.7845    0.4922 C   0  0  0  0  0  0  0  0  0 33  0  0
    2.8744    4.7481    0.6706 H   0  0  0  0  0  0  0  0  0 34  0  0
    1.8649    5.2502   -1.8277 H   0  0  0  0  0  0  0  0  0 39  0  0
    0.2673    4.4898   -2.0420 H   0  0  0  0  0  0  0  0  0 40  0  0
    0.5862    5.5924   -0.6786 H   0  0  0  0  0  0  0  0  0 41  0  0
  1  2  1  0
  2  3  4  0
  3  4  4  0
  4  5  1  0
  5  6  1  0
  6  7  1  0
  6  8  1  0
  6  9  1  0
  9 10  1  0
  9 11  1  0
  9 12  1  0
 12 13  1  0
 13 14  4  0
 14 15  1  0
 14 16  4  0
 16 17  1  0
 16 18  4  0
 18 19  1  0
 18 20  4  0
 20 21  1  0
 20 22  4  0
 22 23  1  0
 12 24  1  0
 24 25  1  0
 24 26  1  0
 24 27  1  0
 27 28  1  0
 27 29  1  0
  4 30  4  0
 30 31  1  0
 31 32  3  0
 30 33  4  0
 33 34  1  0
 34 35  1  0
 34 36  1  0
 34 37  1  0
 33 38  4  0
 38 39  1  0
  1 40  1  0
  1 41  1  0
  1 42  1  0
 38  2  4  0
 27  5  1  0
 22 13  4  0
M  END
>  <sample_id>  (176)
train::Cc1cc(C)c(C#N)c(N2CCN(c3ccccc3F)CC2)n1__gen0001

>  <partition>  (176)
BAT_EXTERNAL_CONFIRM

>  <method>  (176)
BA_seed193

>  <candidate>  (176)
primary

$$$$
train::Cc1cc(C)c(C#N)c(N2CCN(c3ccccc3F)CC2)n1__gen0002
     RDKit          3D

 42 44  0  0  0  0  0  0  0  0999 V2000
    2.8310   -0.1848   -1.8827 C   0  0  0  0  0  0  0  0  0  0  0  0
    1.7811    0.5817   -1.1459 C   0  0  0  0  0  0  0  0  0  1  0  0
    0.5178    0.3665   -1.4779 N   0  0  0  0  0  0  0  0  0  2  0  0
   -0.4612    0.9664   -0.8572 C   0  0  0  0  0  0  0  0  0  3  0  0
   -1.7531    0.6645   -1.2548 N   0  0  0  0  0  0  0  0  0  4  0  0
   -1.8455   -0.3695   -2.2628 C   0  0  0  0  0  0  0  0  0  5  0  0
   -1.1557   -0.1163   -3.0922 H   0  0  0  0  0  0  0  0  0  6  0  0
   -2.8643   -0.3484   -2.6526 H   0  0  0  0  0  0  0  0  0 28  0  0
   -1.5076   -1.7405   -1.6611 C   0  0  0  0  0  0  0  0  0  7  0  0
   -0.4752   -2.0083   -1.9052 H   0  0  0  0  0  0  0  0  0 26  0  0
   -2.1674   -2.5177   -2.0566 H   0  0  0  0  0  0  0  0  0 27  0  0
   -1.6554   -1.6837   -0.2119 N   0  0  0  0  0  0  0  0  0  8  0  0
   -0.5120   -1.6666    0.5857 C   0  0  0  0  0  0  0  0  0  9  0  0
   -0.3587   -0.8764    1.7406 C   0  0  0  0  0  0  0  0  0 10  0  0
   -1.3489   -0.0439    2.1712 F   0  0  0  0  0  0  0  0  0 19  0  0
    0.7915   -0.8762    2.4949 C   0  0  0  0  0  0  0  0  0 11  0  0
    0.8367   -0.2229    3.3568 H   0  0  0  0  0  0  0  0  0 18  0  0
    1.8524   -1.6682    2.1281 C   0  0  0  0  0  0  0  0  0 12  0  0
    2.7700   -1.6534    2.6993 H   0  0  0  0  0  0  0  0  0 17  0  0
    1.7341   -2.4866    1.0152 C   0  0  0  0  0  0  0  0  0 13  0  0
    2.5413   -3.1304    0.7229 H   0  0  0  0  0  0  0  0  0 16  0  0
    0.5734   -2.4841    0.2680 C   0  0  0  0  0  0  0  0  0 14  0  0
    0.4957   -3.1515   -0.5682 H   0  0  0  0  0  0  0  0  0 15  0  0
   -2.8711   -0.9947    0.1387 C   0  0  0  0  0  0  0  0  0 20  0  0
   -3.6826   -1.5099   -0.3748 H   0  0  0  0  0  0  0  0  0 21  0  0
   -3.0456   -1.0905    1.2093 H   0  0  0  0  0  0  0  0  0 25  0  0
   -2.8158    0.4994   -0.2884 C   0  0  0  0  0  0  0  0  0 22  0  0
   -3.7521    0.7973   -0.7648 H   0  0  0  0  0  0  0  0  0 23  0  0
   -2.6521    1.1395    0.5881 H   0  0  0  0  0  0  0  0  0 24  0  0
   -0.1982    1.9643    0.1264 C   0  0  0  0  0  0  0  0  0 29  0  0
   -1.1880    2.7929    0.6568 C   0  0  0  0  0  0  0  0  0 30  0  0
   -1.9879    3.5286    1.0779 N   0  0  0  0  0  0  0  0  0 31  0  0
    1.1249    2.1671    0.5186 C   0  0  0  0  0  0  0  0  0 32  0  0
    1.4175    3.1679    1.5735 C   0  0  0  0  0  0  0  0  0 35  0  0
    2.4874    3.1696    1.8121 H   0  0  0  0  0  0  0  0  0 36  0  0
    1.1534    4.1752    1.2452 H   0  0  0  0  0  0  0  0  0 37  0  0
    0.8461    2.9682    2.4791 H   0  0  0  0  0  0  0  0  0 38  0  0
    2.1221    1.4288   -0.1056 C   0  0  0  0  0  0  0  0  0 33  0  0
    3.1483    1.5540    0.1804 H   0  0  0  0  0  0  0  0  0 34  0  0
    2.3642   -0.8024   -2.6494 H   0  0  0  0  0  0  0  0  0 39  0  0
    3.3935   -0.8153   -1.2143 H   0  0  0  0  0  0  0  0  0 40  0  0
    3.5158    0.5103   -2.3626 H   0  0  0  0  0  0  0  0  0 41  0  0
  1  2  1  0
  2  3  4  0
  3  4  4  0
  4  5  1  0
  5  6  1  0
  6  7  1  0
  6  8  1  0
  6  9  1  0
  9 10  1  0
  9 11  1  0
  9 12  1  0
 12 13  1  0
 13 14  4  0
 14 15  1  0
 14 16  4  0
 16 17  1  0
 16 18  4  0
 18 19  1  0
 18 20  4  0
 20 21  1  0
 20 22  4  0
 22 23  1  0
 12 24  1  0
 24 25  1  0
 24 26  1  0
 24 27  1  0
 27 28  1  0
 27 29  1  0
  4 30  4  0
 30 31  1  0
 31 32  3  0
 30 33  4  0
 33 34  1  0
 34 35  1  0
 34 36  1  0
 34 37  1  0
 33 38  4  0
 38 39  1  0
  1 40  1  0
  1 41  1  0
  1 42  1  0
 38  2  4  0
 27  5  1  0
 22 13  4  0
M  END
>  <sample_id>  (177)
train::Cc1cc(C)c(C#N)c(N2CCN(c3ccccc3F)CC2)n1__gen0002

>  <partition>  (177)
BAT_EXTERNAL_CONFIRM

>  <method>  (177)
BA_seed193

>  <candidate>  (177)
primary

$$$$
train::Cc1cc(C(=O)COC(=O)CC2Sc3ccccc3NC2=O)c(C)n1-c1ccc2c(c1)OCO2__gen0000
     RDKit          3D

 56 60  0  0  0  0  0  0  0  0999 V2000
    1.8043    1.8718   -0.7465 C   0  0  0  0  0  0  0  0  0  0  0  0
    1.7499    0.9587    0.4223 C   0  0  0  0  0  0  0  0  0  1  0  0
    1.6927    1.2333    1.7611 C   0  0  0  0  0  0  0  0  0  2  0  0
    1.6205    2.2116    2.1691 H   0  0  0  0  0  0  0  0  0 52  0  0
    1.7357    0.0027    2.4583 C   0  0  0  0  0  0  0  0  0  3  0  0
    1.6931   -0.2184    3.8764 C   0  0  0  0  0  0  0  0  0 24  0  0
    2.1211   -1.1886    4.4537 O   0  0  0  0  0  0  0  0  0 25  0  0
    0.9777    0.8746    4.6827 C   0  0  0  0  0  0  0  0  0 26  0  0
    1.0251    0.6392    5.7451 H   0  0  0  0  0  0  0  0  0 27  0  0
    1.3888    1.8793    4.4846 H   0  0  0  0  0  0  0  0  0 28  0  0
   -0.3916    0.8521    4.2854 O   0  0  0  0  0  0  0  0  0 29  0  0
   -0.9411    1.9270    3.7421 C   0  0  0  0  0  0  0  0  0 30  0  0
   -0.4161    3.0047    3.6364 O   0  0  0  0  0  0  0  0  0 31  0  0
   -2.3575    1.6319    3.2840 C   0  0  0  0  0  0  0  0  0 32  0  0
   -2.3791    1.2651    1.8149 C   0  0  2  0  0  0  0  0  0 33  0  0
   -3.4235    1.4774    1.4582 H   0  0  0  0  0  0  0  0  0 49  0  0
   -1.9916   -0.1610    1.4937 C   0  0  0  0  0  0  0  0  0 34  0  0
   -1.4737   -0.9372    2.2591 O   0  0  0  0  0  0  0  0  0 35  0  0
   -2.3445   -0.4806    0.2181 N   0  0  0  0  0  0  0  0  0 36  0  0
   -2.4577   -1.4703    0.0511 H   0  0  0  0  0  0  0  0  0 48  0  0
   -2.5218    0.4487   -0.8139 C   0  0  0  0  0  0  0  0  0 37  0  0
   -3.1995    0.1027   -1.9784 C   0  0  0  0  0  0  0  0  0 38  0  0
   -3.7458   -0.8347   -2.0077 H   0  0  0  0  0  0  0  0  0 47  0  0
   -3.1705    0.9350   -3.0785 C   0  0  0  0  0  0  0  0  0 39  0  0
   -3.6618    0.6534   -3.9984 H   0  0  0  0  0  0  0  0  0 46  0  0
   -2.4607    2.1322   -3.0190 C   0  0  0  0  0  0  0  0  0 40  0  0
   -2.4012    2.7669   -3.8978 H   0  0  0  0  0  0  0  0  0 45  0  0
   -1.8434    2.5172   -1.8483 C   0  0  0  0  0  0  0  0  0 41  0  0
   -1.3035    3.4594   -1.7642 H   0  0  0  0  0  0  0  0  0 44  0  0
   -1.8941    1.6828   -0.7451 C   0  0  0  0  0  0  0  0  0 42  0  0
   -1.2197    2.2319    0.8113 S   0  0  0  0  0  0  0  0  0 43  0  0
   -2.9663    2.4995    3.4455 H   0  0  0  0  0  0  0  0  0 50  0  0
   -2.7569    0.7746    3.8284 H   0  0  0  0  0  0  0  0  0 51  0  0
    1.8681   -1.0018    1.5122 C   0  0  0  0  0  0  0  0  0  4  0  0
    1.9463   -2.4700    1.7001 C   0  0  0  0  0  0  0  0  0 20  0  0
    2.9829   -2.7944    1.7232 H   0  0  0  0  0  0  0  0  0 21  0  0
    1.5007   -2.7354    2.6466 H   0  0  0  0  0  0  0  0  0 22  0  0
    1.4414   -2.9870    0.8895 H   0  0  0  0  0  0  0  0  0 23  0  0
    1.8434   -0.4118    0.2828 N   0  0  0  0  0  0  0  0  0  5  0  0
    1.7948   -1.0897   -0.9623 C   0  0  0  0  0  0  0  0  0  6  0  0
    2.8132   -1.9729   -1.3068 C   0  0  0  0  0  0  0  0  0  7  0  0
    3.6577   -2.0736   -0.6476 H   0  0  0  0  0  0  0  0  0 19  0  0
    2.7803   -2.6673   -2.5049 C   0  0  0  0  0  0  0  0  0  8  0  0
    3.5641   -3.3433   -2.7956 H   0  0  0  0  0  0  0  0  0 18  0  0
    1.6857   -2.4775   -3.3235 C   0  0  0  0  0  0  0  0  0  9  0  0
    0.6516   -1.5893   -2.9642 C   0  0  0  0  0  0  0  0  0 10  0  0
    0.6857   -0.8888   -1.7751 C   0  0  0  0  0  0  0  0  0 11  0  0
   -0.0872   -0.2074   -1.4850 H   0  0  0  0  0  0  0  0  0 12  0  0
   -0.2969   -1.5757   -3.9528 O   0  0  0  0  0  0  0  0  0 13  0  0
    0.1521   -2.4837   -4.9199 C   0  0  0  0  0  0  0  0  0 14  0  0
    0.2882   -1.9612   -5.8831 H   0  0  0  0  0  0  0  0  0 16  0  0
   -0.6036   -3.2853   -5.0451 H   0  0  0  0  0  0  0  0  0 17  0  0
    1.3735   -3.0547   -4.5162 O   0  0  0  0  0  0  0  0  0 15  0  0
    2.0509    2.8761   -0.4182 H   0  0  0  0  0  0  0  0  0 53  0  0
    2.5662    1.5492   -1.4665 H   0  0  0  0  0  0  0  0  0 54  0  0
    0.8535    1.9029   -1.2711 H   0  0  0  0  0  0  0  0  0 55  0  0
  1  2  1  0
  2  3  4  0
  3  4  1  0
  3  5  4  0
  5  6  1  0
  6  7  2  0
  6  8  1  0
  8  9  1  0
  8 10  1  0
  8 11  1  0
 11 12  1  0
 12 13  2  0
 12 14  1  0
 14 15  1  0
 15 16  1  6
 15 17  1  0
 17 18  2  0
 17 19  1  0
 19 20  1  0
 19 21  1  0
 21 22  4  0
 22 23  1  0
 22 24  4  0
 24 25  1  0
 24 26  4  0
 26 27  1  0
 26 28  4  0
 28 29  1  0
 28 30  4  0
 30 31  1  0
 14 32  1  0
 14 33  1  0
  5 34  4  0
 34 35  1  0
 35 36  1  0
 35 37  1  0
 35 38  1  0
 34 39  4  0
 39 40  1  0
 40 41  4  0
 41 42  1  0
 41 43  4  0
 43 44  1  0
 43 45  4  0
 45 46  4  0
 46 47  4  0
 47 48  1  0
 46 49  1  0
 49 50  1  0
 50 51  1  0
 50 52  1  0
 50 53  1  0
  1 54  1  0
  1 55  1  0
  1 56  1  0
 39  2  4  0
 47 40  4  0
 31 15  1  0
 53 45  1  0
 30 21  4  0
M  END
>  <sample_id>  (178)
train::Cc1cc(C(=O)COC(=O)CC2Sc3ccccc3NC2=O)c(C)n1-c1ccc2c(c1)OCO2__gen0000

>  <partition>  (178)
BAT_EXTERNAL_CONFIRM

>  <method>  (178)
BA_seed193

>  <candidate>  (178)
primary

$$$$
train::Cc1cc(C(=O)COC(=O)CC2Sc3ccccc3NC2=O)c(C)n1-c1ccc2c(c1)OCO2__gen0001
     RDKit          3D

 56 60  0  0  0  0  0  0  0  0999 V2000
    3.5699   -3.3811    1.2432 C   0  0  0  0  0  0  0  0  0  0  0  0
    2.5936   -2.2918    0.9876 C   0  0  0  0  0  0  0  0  0  1  0  0
    1.9049   -1.5074    1.8621 C   0  0  0  0  0  0  0  0  0  2  0  0
    1.9995   -1.5262    2.9291 H   0  0  0  0  0  0  0  0  0 52  0  0
    1.0499   -0.6712    1.0972 C   0  0  0  0  0  0  0  0  0  3  0  0
    0.1348    0.3397    1.5883 C   0  0  0  0  0  0  0  0  0 24  0  0
   -0.6499    0.9696    0.9014 O   0  0  0  0  0  0  0  0  0 25  0  0
    0.1854    0.6106    3.0917 C   0  0  0  0  0  0  0  0  0 26  0  0
   -0.1159   -0.2817    3.6510 H   0  0  0  0  0  0  0  0  0 27  0  0
    1.2123    0.8904    3.3812 H   0  0  0  0  0  0  0  0  0 28  0  0
   -0.7284    1.6307    3.4047 O   0  0  0  0  0  0  0  0  0 29  0  0
   -0.2817    2.9059    3.3055 C   0  0  0  0  0  0  0  0  0 30  0  0
    0.8820    3.2089    3.2722 O   0  0  0  0  0  0  0  0  0 31  0  0
   -1.4496    3.8750    3.3662 C   0  0  0  0  0  0  0  0  0 32  0  0
   -2.5305    3.3859    2.4137 C   0  0  2  0  0  0  0  0  0 33  0  0
   -2.9644    2.4673    2.8004 H   0  0  0  0  0  0  0  0  0 49  0  0
   -1.9260    3.0972    1.0358 C   0  0  0  0  0  0  0  0  0 34  0  0
   -0.7530    3.2948    0.8745 O   0  0  0  0  0  0  0  0  0 35  0  0
   -2.7990    2.5999    0.1403 N   0  0  0  0  0  0  0  0  0 36  0  0
   -2.4126    2.0395   -0.6112 H   0  0  0  0  0  0  0  0  0 48  0  0
   -4.1880    2.7453    0.1636 C   0  0  0  0  0  0  0  0  0 37  0  0
   -4.9592    2.0183   -0.7371 C   0  0  0  0  0  0  0  0  0 38  0  0
   -4.4745    1.2850   -1.3536 H   0  0  0  0  0  0  0  0  0 47  0  0
   -6.3195    2.2338   -0.8288 C   0  0  0  0  0  0  0  0  0 39  0  0
   -6.9113    1.6877   -1.5512 H   0  0  0  0  0  0  0  0  0 46  0  0
   -6.9260    3.1864   -0.0246 C   0  0  0  0  0  0  0  0  0 40  0  0
   -7.9940    3.3726   -0.0944 H   0  0  0  0  0  0  0  0  0 45  0  0
   -6.1734    3.9021    0.8976 C   0  0  0  0  0  0  0  0  0 41  0  0
   -6.6324    4.6430    1.5308 H   0  0  0  0  0  0  0  0  0 44  0  0
   -4.8103    3.6737    1.0138 C   0  0  0  0  0  0  0  0  0 42  0  0
   -3.8733    4.6002    2.1923 S   0  0  0  0  0  0  0  0  0 43  0  0
   -1.8362    3.9342    4.3810 H   0  0  0  0  0  0  0  0  0 50  0  0
   -1.0963    4.8555    3.0536 H   0  0  0  0  0  0  0  0  0 51  0  0
    1.2449   -0.9797   -0.2400 C   0  0  0  0  0  0  0  0  0  4  0  0
    0.6182   -0.3657   -1.4220 C   0  0  0  0  0  0  0  0  0 20  0  0
    1.1436   -0.6391   -2.3384 H   0  0  0  0  0  0  0  0  0 21  0  0
   -0.4229   -0.6831   -1.5103 H   0  0  0  0  0  0  0  0  0 22  0  0
    0.6214    0.7154   -1.3215 H   0  0  0  0  0  0  0  0  0 23  0  0
    2.1885   -1.9584   -0.2951 N   0  0  0  0  0  0  0  0  0  5  0  0
    2.6438   -2.5859   -1.4633 C   0  0  0  0  0  0  0  0  0  6  0  0
    1.7435   -3.2675   -2.2758 C   0  0  0  0  0  0  0  0  0  7  0  0
    0.7027   -3.2936   -1.9859 H   0  0  0  0  0  0  0  0  0 19  0  0
    2.1433   -3.8934   -3.4469 C   0  0  0  0  0  0  0  0  0  8  0  0
    1.4389   -4.4149   -4.0851 H   0  0  0  0  0  0  0  0  0 18  0  0
    3.4752   -3.8201   -3.7768 C   0  0  0  0  0  0  0  0  0  9  0  0
    4.3878   -3.1576   -2.9628 C   0  0  0  0  0  0  0  0  0 10  0  0
    3.9991   -2.5251   -1.8002 C   0  0  0  0  0  0  0  0  0 11  0  0
    4.7095   -2.0022   -1.1776 H   0  0  0  0  0  0  0  0  0 12  0  0
    5.6391   -3.2688   -3.4917 O   0  0  0  0  0  0  0  0  0 13  0  0
    5.4951   -3.9978   -4.6934 C   0  0  0  0  0  0  0  0  0 14  0  0
    5.8114   -3.3800   -5.5478 H   0  0  0  0  0  0  0  0  0 16  0  0
    6.1021   -4.9196   -4.6536 H   0  0  0  0  0  0  0  0  0 17  0  0
    4.1324   -4.3557   -4.8491 O   0  0  0  0  0  0  0  0  0 15  0  0
    4.5704   -3.1258    0.9041 H   0  0  0  0  0  0  0  0  0 53  0  0
    3.6196   -3.5702    2.3120 H   0  0  0  0  0  0  0  0  0 54  0  0
    3.2655   -4.3051    0.7434 H   0  0  0  0  0  0  0  0  0 55  0  0
  1  2  1  0
  2  3  4  0
  3  4  1  0
  3  5  4  0
  5  6  1  0
  6  7  2  0
  6  8  1  0
  8  9  1  0
  8 10  1  0
  8 11  1  0
 11 12  1  0
 12 13  2  0
 12 14  1  0
 14 15  1  0
 15 16  1  1
 15 17  1  0
 17 18  2  0
 17 19  1  0
 19 20  1  0
 19 21  1  0
 21 22  4  0
 22 23  1  0
 22 24  4  0
 24 25  1  0
 24 26  4  0
 26 27  1  0
 26 28  4  0
 28 29  1  0
 28 30  4  0
 30 31  1  0
 14 32  1  0
 14 33  1  0
  5 34  4  0
 34 35  1  0
 35 36  1  0
 35 37  1  0
 35 38  1  0
 34 39  4  0
 39 40  1  0
 40 41  4  0
 41 42  1  0
 41 43  4  0
 43 44  1  0
 43 45  4  0
 45 46  4  0
 46 47  4  0
 47 48  1  0
 46 49  1  0
 49 50  1  0
 50 51  1  0
 50 52  1  0
 50 53  1  0
  1 54  1  0
  1 55  1  0
  1 56  1  0
 39  2  4  0
 47 40  4  0
 31 15  1  0
 53 45  1  0
 30 21  4  0
M  END
>  <sample_id>  (179)
train::Cc1cc(C(=O)COC(=O)CC2Sc3ccccc3NC2=O)c(C)n1-c1ccc2c(c1)OCO2__gen0001

>  <partition>  (179)
BAT_EXTERNAL_CONFIRM

>  <method>  (179)
BA_seed193

>  <candidate>  (179)
primary

$$$$
train::Cc1cc(C(=O)COC(=O)CC2Sc3ccccc3NC2=O)c(C)n1-c1ccc2c(c1)OCO2__gen0002
     RDKit          3D

 56 60  0  0  0  0  0  0  0  0999 V2000
   -2.2483   -0.6494    1.1389 C   0  0  0  0  0  0  0  0  0  0  0  0
   -1.3892   -1.2634    0.0852 C   0  0  0  0  0  0  0  0  0  1  0  0
   -0.6854   -2.4262    0.1195 C   0  0  0  0  0  0  0  0  0  2  0  0
   -0.6499   -3.0898    0.9549 H   0  0  0  0  0  0  0  0  0 52  0  0
   -0.0425   -2.5836   -1.1292 C   0  0  0  0  0  0  0  0  0  3  0  0
    0.8100   -3.6510   -1.5709 C   0  0  0  0  0  0  0  0  0 24  0  0
    1.0895   -3.9180   -2.7177 O   0  0  0  0  0  0  0  0  0 25  0  0
    1.3523   -4.5364   -0.4369 C   0  0  0  0  0  0  0  0  0 26  0  0
    2.1190   -5.2188   -0.8405 H   0  0  0  0  0  0  0  0  0 27  0  0
    0.5347   -5.1228   -0.0013 H   0  0  0  0  0  0  0  0  0 28  0  0
    1.9118   -3.7717    0.6082 O   0  0  0  0  0  0  0  0  0 29  0  0
    3.0470   -3.1013    0.3197 C   0  0  0  0  0  0  0  0  0 30  0  0
    3.6407   -3.1935   -0.7031 O   0  0  0  0  0  0  0  0  0 31  0  0
    3.5027   -2.2543    1.4929 C   0  0  0  0  0  0  0  0  0 32  0  0
    2.4636   -1.2253    1.8464 C   0  0  2  0  0  0  0  0  0 33  0  0
    1.5913   -1.6676    2.3227 H   0  0  0  0  0  0  0  0  0 49  0  0
    1.9501   -0.4770    0.6323 C   0  0  0  0  0  0  0  0  0 34  0  0
    2.1116   -0.8690   -0.4994 O   0  0  0  0  0  0  0  0  0 35  0  0
    1.1829    0.6170    0.9144 N   0  0  0  0  0  0  0  0  0 36  0  0
    0.6192    0.9098    0.1265 H   0  0  0  0  0  0  0  0  0 48  0  0
    1.0017    1.2569    2.1389 C   0  0  0  0  0  0  0  0  0 37  0  0
   -0.0504    2.1430    2.2797 C   0  0  0  0  0  0  0  0  0 38  0  0
   -0.7170    2.2745    1.4367 H   0  0  0  0  0  0  0  0  0 47  0  0
   -0.2303    2.8472    3.4448 C   0  0  0  0  0  0  0  0  0 39  0  0
   -1.0622    3.5386    3.5237 H   0  0  0  0  0  0  0  0  0 46  0  0
    0.6441    2.6606    4.5010 C   0  0  0  0  0  0  0  0  0 40  0  0
    0.5110    3.2127    5.4174 H   0  0  0  0  0  0  0  0  0 45  0  0
    1.6915    1.7644    4.3882 C   0  0  0  0  0  0  0  0  0 41  0  0
    2.3925    1.6100    5.1959 H   0  0  0  0  0  0  0  0  0 44  0  0
    1.8801    1.0527    3.2121 C   0  0  0  0  0  0  0  0  0 42  0  0
    3.2422   -0.0687    3.0765 S   0  0  0  0  0  0  0  0  0 43  0  0
    3.7012   -2.8825    2.3549 H   0  0  0  0  0  0  0  0  0 50  0  0
    4.4255   -1.7511    1.1957 H   0  0  0  0  0  0  0  0  0 51  0  0
   -0.3606   -1.4409   -1.8816 C   0  0  0  0  0  0  0  0  0  4  0  0
    0.0689   -1.0909   -3.2488 C   0  0  0  0  0  0  0  0  0 20  0  0
    0.9355   -0.4294   -3.2108 H   0  0  0  0  0  0  0  0  0 21  0  0
   -0.7215   -0.5855   -3.8031 H   0  0  0  0  0  0  0  0  0 22  0  0
    0.3705   -1.9965   -3.7685 H   0  0  0  0  0  0  0  0  0 23  0  0
   -1.1862   -0.6728   -1.1410 N   0  0  0  0  0  0  0  0  0  5  0  0
   -1.7400    0.5556   -1.5477 C   0  0  0  0  0  0  0  0  0  6  0  0
   -3.1283    0.6835   -1.6467 C   0  0  0  0  0  0  0  0  0  7  0  0
   -3.7547   -0.1626   -1.4040 H   0  0  0  0  0  0  0  0  0 19  0  0
   -3.7148    1.8695   -2.0649 C   0  0  0  0  0  0  0  0  0  8  0  0
   -4.7913    1.9710   -2.1271 H   0  0  0  0  0  0  0  0  0 18  0  0
   -2.8699    2.9126   -2.3818 C   0  0  0  0  0  0  0  0  0  9  0  0
   -1.4864    2.7817   -2.2836 C   0  0  0  0  0  0  0  0  0 10  0  0
   -0.8970    1.6081   -1.8754 C   0  0  0  0  0  0  0  0  0 11  0  0
    0.1668    1.5059   -1.7937 H   0  0  0  0  0  0  0  0  0 12  0  0
   -0.9031    3.9579   -2.6570 O   0  0  0  0  0  0  0  0  0 13  0  0
   -1.9573    4.8326   -3.0079 C   0  0  0  0  0  0  0  0  0 14  0  0
   -1.9166    5.7321   -2.3755 H   0  0  0  0  0  0  0  0  0 16  0  0
   -1.8634    5.1275   -4.0666 H   0  0  0  0  0  0  0  0  0 17  0  0
   -3.1868    4.1732   -2.8053 O   0  0  0  0  0  0  0  0  0 15  0  0
   -2.0290   -1.1093    2.0979 H   0  0  0  0  0  0  0  0  0 53  0  0
   -3.3104   -0.8065    0.9480 H   0  0  0  0  0  0  0  0  0 54  0  0
   -2.0657    0.4173    1.2172 H   0  0  0  0  0  0  0  0  0 55  0  0
  1  2  1  0
  2  3  4  0
  3  4  1  0
  3  5  4  0
  5  6  1  0
  6  7  2  0
  6  8  1  0
  8  9  1  0
  8 10  1  0
  8 11  1  0
 11 12  1  0
 12 13  2  0
 12 14  1  0
 14 15  1  0
 15 16  1  1
 15 17  1  0
 17 18  2  0
 17 19  1  0
 19 20  1  0
 19 21  1  0
 21 22  4  0
 22 23  1  0
 22 24  4  0
 24 25  1  0
 24 26  4  0
 26 27  1  0
 26 28  4  0
 28 29  1  0
 28 30  4  0
 30 31  1  0
 14 32  1  0
 14 33  1  0
  5 34  4  0
 34 35  1  0
 35 36  1  0
 35 37  1  0
 35 38  1  0
 34 39  4  0
 39 40  1  0
 40 41  4  0
 41 42  1  0
 41 43  4  0
 43 44  1  0
 43 45  4  0
 45 46  4  0
 46 47  4  0
 47 48  1  0
 46 49  1  0
 49 50  1  0
 50 51  1  0
 50 52  1  0
 50 53  1  0
  1 54  1  0
  1 55  1  0
  1 56  1  0
 39  2  4  0
 47 40  4  0
 31 15  1  0
 53 45  1  0
 30 21  4  0
M  END
>  <sample_id>  (180)
train::Cc1cc(C(=O)COC(=O)CC2Sc3ccccc3NC2=O)c(C)n1-c1ccc2c(c1)OCO2__gen0002

>  <partition>  (180)
BAT_EXTERNAL_CONFIRM

>  <method>  (180)
BA_seed193

>  <candidate>  (180)
primary

$$$$
train::COC(=O)CCCC(=O)NC1CC(C)(C)Cc2c1cnn2-c1ccc(C)cc1__gen0000
     RDKit          3D

 57 59  0  0  0  0  0  0  0  0999 V2000
    1.3059    0.0515   -3.3055 C   0  0  0  0  0  0  0  0  0  0  0  0
    1.6299   -0.4661   -2.4107 H   0  0  0  0  0  0  0  0  0  1  0  0
    1.7915   -0.3376   -4.1890 H   0  0  0  0  0  0  0  0  0  2  0  0
    0.2224   -0.0195   -3.3988 H   0  0  0  0  0  0  0  0  0  3  0  0
    1.6680    1.4392   -3.2510 O   0  0  0  0  0  0  0  0  0  4  0  0
    1.0256    2.2362   -2.4267 C   0  0  0  0  0  0  0  0  0  5  0  0
    0.1288    1.8646   -1.6924 O   0  0  0  0  0  0  0  0  0  6  0  0
    1.4841    3.6618   -2.5307 C   0  0  0  0  0  0  0  0  0  7  0  0
    2.5242    3.6650   -2.8741 H   0  0  0  0  0  0  0  0  0  8  0  0
    0.8671    4.1194   -3.3065 H   0  0  0  0  0  0  0  0  0  9  0  0
    1.3311    4.4581   -1.2309 C   0  0  0  0  0  0  0  0  0 10  0  0
    0.3913    4.1956   -0.7475 H   0  0  0  0  0  0  0  0  0 11  0  0
    1.2929    5.5220   -1.4953 H   0  0  0  0  0  0  0  0  0 12  0  0
    2.5235    4.2839   -0.2536 C   0  0  0  0  0  0  0  0  0 13  0  0
    2.4088    3.2829    0.8785 C   0  0  0  0  0  0  0  0  0 14  0  0
    3.2116    3.3048    1.7908 O   0  0  0  0  0  0  0  0  0 15  0  0
    1.4201    2.3780    0.8351 N   0  0  0  0  0  0  0  0  0 16  0  0
    0.8028    2.3130    0.0326 H   0  0  0  0  0  0  0  0  0 17  0  0
    1.3138    1.3051    1.7968 C   0  0  2  0  0  0  0  0  0 18  0  0
    2.2391    1.3818    2.3978 H   0  0  0  0  0  0  0  0  0 54  0  0
    1.2477   -0.0012    1.0648 C   0  0  0  0  0  0  0  0  0 19  0  0
    0.1820   -0.8589    1.1201 C   0  0  0  0  0  0  0  0  0 20  0  0
    0.4345   -1.8525    0.2241 N   0  0  0  0  0  0  0  0  0 21  0  0
   -0.3468   -2.9573   -0.1515 C   0  0  0  0  0  0  0  0  0 25  0  0
   -0.2401   -3.4290   -1.4507 C   0  0  0  0  0  0  0  0  0 26  0  0
    0.4716   -2.9816   -2.1181 H   0  0  0  0  0  0  0  0  0 38  0  0
   -1.0103   -4.5019   -1.8651 C   0  0  0  0  0  0  0  0  0 27  0  0
   -0.9199   -4.8639   -2.8713 H   0  0  0  0  0  0  0  0  0 37  0  0
   -1.9088   -5.1058   -0.9999 C   0  0  0  0  0  0  0  0  0 28  0  0
   -2.7708   -6.2606   -1.4420 C   0  0  0  0  0  0  0  0  0 33  0  0
   -2.5964   -6.4886   -2.4851 H   0  0  0  0  0  0  0  0  0 34  0  0
   -3.8221   -6.0061   -1.2972 H   0  0  0  0  0  0  0  0  0 35  0  0
   -2.5654   -7.1423   -0.8296 H   0  0  0  0  0  0  0  0  0 36  0  0
   -2.0008   -4.6312    0.3103 C   0  0  0  0  0  0  0  0  0 29  0  0
   -2.6901   -5.1007    0.9944 H   0  0  0  0  0  0  0  0  0 32  0  0
   -1.2253   -3.5739    0.7401 C   0  0  0  0  0  0  0  0  0 30  0  0
   -1.2815   -3.2440    1.7615 H   0  0  0  0  0  0  0  0  0 31  0  0
    1.6161   -1.6695   -0.3795 N   0  0  0  0  0  0  0  0  0 22  0  0
    2.1303   -0.5540    0.1340 C   0  0  0  0  0  0  0  0  0 23  0  0
    3.0908   -0.1981   -0.1842 H   0  0  0  0  0  0  0  0  0 24  0  0
   -1.0094   -0.6569    1.9854 C   0  0  0  0  0  0  0  0  0 39  0  0
   -0.8936   -1.2006    2.9185 H   0  0  0  0  0  0  0  0  0 40  0  0
   -1.8993   -1.0484    1.4565 H   0  0  0  0  0  0  0  0  0 41  0  0
   -1.2000    0.8355    2.2796 C   0  0  1  0  0  0  0  0  0 42  0  0
   -1.7216    1.5315    1.0382 C   0  0  0  0  0  0  0  0  0 43  0  0
   -1.1204    1.3159    0.1479 H   0  0  0  0  0  0  0  0  0 44  0  0
   -2.7394    1.2105    0.7995 H   0  0  0  0  0  0  0  0  0 45  0  0
   -1.7539    2.6128    1.1705 H   0  0  0  0  0  0  0  0  0 46  0  0
   -2.2290    0.9803    3.3936 C   0  0  0  0  0  0  0  0  0 47  0  0
   -3.1686    0.5016    3.1323 H   0  0  0  0  0  0  0  0  0 48  0  0
   -1.8718    0.5173    4.3098 H   0  0  0  0  0  0  0  0  0 49  0  0
   -2.4480    2.0256    3.5881 H   0  0  0  0  0  0  0  0  0 50  0  0
    0.1291    1.4460    2.7647 C   0  0  0  0  0  0  0  0  0 51  0  0
    0.0073    2.4988    3.0018 H   0  0  0  0  0  0  0  0  0 52  0  0
    0.4089    0.9363    3.6948 H   0  0  0  0  0  0  0  0  0 53  0  0
    3.4213    4.0336   -0.8158 H   0  0  0  0  0  0  0  0  0 55  0  0
    2.7115    5.2413    0.2404 H   0  0  0  0  0  0  0  0  0 56  0  0
  1  2  1  0
  1  3  1  0
  1  4  1  0
  1  5  1  0
  5  6  1  0
  6  7  2  0
  6  8  1  0
  8  9  1  0
  8 10  1  0
  8 11  1  0
 11 12  1  0
 11 13  1  0
 11 14  1  0
 14 15  1  0
 15 16  2  0
 15 17  1  0
 17 18  1  0
 17 19  1  0
 19 20  1  1
 19 21  1  0
 21 22  4  0
 22 23  4  0
 23 24  1  0
 24 25  4  0
 25 26  1  0
 25 27  4  0
 27 28  1  0
 27 29  4  0
 29 30  1  0
 30 31  1  0
 30 32  1  0
 30 33  1  0
 29 34  4  0
 34 35  1  0
 34 36  4  0
 36 37  1  0
 23 38  4  0
 38 39  4  0
 39 40  1  0
 22 41  1  0
 41 42  1  0
 41 43  1  0
 41 44  1  0
 44 45  1  6
 45 46  1  0
 45 47  1  0
 45 48  1  0
 44 49  1  0
 49 50  1  0
 49 51  1  0
 49 52  1  0
 44 53  1  0
 53 54  1  0
 53 55  1  0
 14 56  1  0
 14 57  1  0
 53 19  1  0
 39 21  4  0
 36 24  4  0
M  END
>  <sample_id>  (181)
train::COC(=O)CCCC(=O)NC1CC(C)(C)Cc2c1cnn2-c1ccc(C)cc1__gen0000

>  <partition>  (181)
BAT_EXTERNAL_CONFIRM

>  <method>  (181)
BA_seed193

>  <candidate>  (181)
primary

$$$$
train::COC(=O)CCCC(=O)NC1CC(C)(C)Cc2c1cnn2-c1ccc(C)cc1__gen0001
     RDKit          3D

 57 59  0  0  0  0  0  0  0  0999 V2000
    2.5705    0.7376   -4.1340 C   0  0  0  0  0  0  0  0  0  0  0  0
    1.8673    1.2555   -3.4729 H   0  0  0  0  0  0  0  0  0  1  0  0
    2.5322    1.1938   -5.1206 H   0  0  0  0  0  0  0  0  0  2  0  0
    2.3491   -0.3225   -4.1681 H   0  0  0  0  0  0  0  0  0  3  0  0
    3.9035    0.9431   -3.6675 O   0  0  0  0  0  0  0  0  0  4  0  0
    4.2409    0.3770   -2.5319 C   0  0  0  0  0  0  0  0  0  5  0  0
    3.5509   -0.3844   -1.9079 O   0  0  0  0  0  0  0  0  0  6  0  0
    5.6153    0.8340   -2.0803 C   0  0  0  0  0  0  0  0  0  7  0  0
    6.2048    1.1223   -2.9443 H   0  0  0  0  0  0  0  0  0  8  0  0
    6.1055    0.0225   -1.5405 H   0  0  0  0  0  0  0  0  0  9  0  0
    5.4419    2.0426   -1.1565 C   0  0  0  0  0  0  0  0  0 10  0  0
    6.4270    2.3908   -0.8296 H   0  0  0  0  0  0  0  0  0 11  0  0
    4.9670    2.8629   -1.6902 H   0  0  0  0  0  0  0  0  0 12  0  0
    4.6026    1.7229    0.0790 C   0  0  0  0  0  0  0  0  0 13  0  0
    3.1118    1.9056   -0.1820 C   0  0  0  0  0  0  0  0  0 14  0  0
    2.6601    2.7252   -0.9649 O   0  0  0  0  0  0  0  0  0 15  0  0
    2.3047    1.1369    0.6002 N   0  0  0  0  0  0  0  0  0 16  0  0
    2.7520    0.4777    1.2270 H   0  0  0  0  0  0  0  0  0 17  0  0
    0.8745    1.3428    0.7092 C   0  0  1  0  0  0  0  0  0 18  0  0
    0.6607    2.2822    0.1749 H   0  0  0  0  0  0  0  0  0 54  0  0
    0.0993    0.2295    0.0709 C   0  0  0  0  0  0  0  0  0 19  0  0
   -0.9970   -0.3542    0.6451 C   0  0  0  0  0  0  0  0  0 20  0  0
   -1.5008   -1.2365   -0.2692 N   0  0  0  0  0  0  0  0  0 21  0  0
   -2.6454   -2.0367   -0.2165 C   0  0  0  0  0  0  0  0  0 25  0  0
   -3.2998   -2.3362   -1.4161 C   0  0  0  0  0  0  0  0  0 26  0  0
   -2.9159   -1.9472   -2.3268 H   0  0  0  0  0  0  0  0  0 38  0  0
   -4.4215   -3.1301   -1.3862 C   0  0  0  0  0  0  0  0  0 27  0  0
   -4.9304   -3.3553   -2.3192 H   0  0  0  0  0  0  0  0  0 37  0  0
   -4.9136   -3.6494   -0.1976 C   0  0  0  0  0  0  0  0  0 28  0  0
   -6.1551   -4.4938   -0.1670 C   0  0  0  0  0  0  0  0  0 33  0  0
   -5.9824   -5.3908    0.4258 H   0  0  0  0  0  0  0  0  0 34  0  0
   -6.9785   -3.9318    0.2864 H   0  0  0  0  0  0  0  0  0 35  0  0
   -6.4578   -4.7780   -1.1711 H   0  0  0  0  0  0  0  0  0 36  0  0
   -4.2441   -3.3462    0.9739 C   0  0  0  0  0  0  0  0  0 29  0  0
   -4.6014   -3.7607    1.9184 H   0  0  0  0  0  0  0  0  0 32  0  0
   -3.1044   -2.5658    0.9861 C   0  0  0  0  0  0  0  0  0 30  0  0
   -2.5884   -2.3870    1.9037 H   0  0  0  0  0  0  0  0  0 31  0  0
   -0.7423   -1.2435   -1.3821 N   0  0  0  0  0  0  0  0  0 22  0  0
    0.2245   -0.3656   -1.1938 C   0  0  0  0  0  0  0  0  0 23  0  0
    0.9806   -0.2343   -1.9215 H   0  0  0  0  0  0  0  0  0 24  0  0
   -1.5433   -0.0007    1.9864 C   0  0  0  0  0  0  0  0  0 39  0  0
   -2.6425    0.0177    1.9527 H   0  0  0  0  0  0  0  0  0 40  0  0
   -1.2231   -0.7167    2.7361 H   0  0  0  0  0  0  0  0  0 41  0  0
   -1.0304    1.3890    2.3982 C   0  0  1  0  0  0  0  0  0 42  0  0
   -1.7434    2.4685    1.5960 C   0  0  0  0  0  0  0  0  0 43  0  0
   -1.6049    2.3094    0.5146 H   0  0  0  0  0  0  0  0  0 44  0  0
   -1.3379    3.4504    1.8473 H   0  0  0  0  0  0  0  0  0 45  0  0
   -2.8040    2.4613    1.7974 H   0  0  0  0  0  0  0  0  0 46  0  0
   -1.3478    1.6017    3.9108 C   0  0  0  0  0  0  0  0  0 47  0  0
   -1.0222    2.5997    4.2155 H   0  0  0  0  0  0  0  0  0 48  0  0
   -2.4117    1.5358    4.0819 H   0  0  0  0  0  0  0  0  0 49  0  0
   -0.8472    0.8627    4.4966 H   0  0  0  0  0  0  0  0  0 50  0  0
    0.5010    1.4654    2.1910 C   0  0  0  0  0  0  0  0  0 51  0  0
    0.9717    0.6698    2.7465 H   0  0  0  0  0  0  0  0  0 52  0  0
    0.8682    2.4257    2.5743 H   0  0  0  0  0  0  0  0  0 53  0  0
    4.8476    2.4020    0.8916 H   0  0  0  0  0  0  0  0  0 55  0  0
    4.8020    0.7031    0.4208 H   0  0  0  0  0  0  0  0  0 56  0  0
  1  2  1  0
  1  3  1  0
  1  4  1  0
  1  5  1  0
  5  6  1  0
  6  7  2  0
  6  8  1  0
  8  9  1  0
  8 10  1  0
  8 11  1  0
 11 12  1  0
 11 13  1  0
 11 14  1  0
 14 15  1  0
 15 16  2  0
 15 17  1  0
 17 18  1  0
 17 19  1  0
 19 20  1  1
 19 21  1  0
 21 22  4  0
 22 23  4  0
 23 24  1  0
 24 25  4  0
 25 26  1  0
 25 27  4  0
 27 28  1  0
 27 29  4  0
 29 30  1  0
 30 31  1  0
 30 32  1  0
 30 33  1  0
 29 34  4  0
 34 35  1  0
 34 36  4  0
 36 37  1  0
 23 38  4  0
 38 39  4  0
 39 40  1  0
 22 41  1  0
 41 42  1  0
 41 43  1  0
 41 44  1  0
 44 45  1  6
 45 46  1  0
 45 47  1  0
 45 48  1  0
 44 49  1  0
 49 50  1  0
 49 51  1  0
 49 52  1  0
 44 53  1  0
 53 54  1  0
 53 55  1  0
 14 56  1  0
 14 57  1  0
 53 19  1  0
 39 21  4  0
 36 24  4  0
M  END
>  <sample_id>  (182)
train::COC(=O)CCCC(=O)NC1CC(C)(C)Cc2c1cnn2-c1ccc(C)cc1__gen0001

>  <partition>  (182)
BAT_EXTERNAL_CONFIRM

>  <method>  (182)
BA_seed193

>  <candidate>  (182)
primary

$$$$
train::COC(=O)CCCC(=O)NC1CC(C)(C)Cc2c1cnn2-c1ccc(C)cc1__gen0002
     RDKit          3D

 57 59  0  0  0  0  0  0  0  0999 V2000
    4.1806   -3.7245    0.5691 C   0  0  0  0  0  0  0  0  0  0  0  0
    4.9360   -3.3086    1.2420 H   0  0  0  0  0  0  0  0  0  1  0  0
    4.1513   -4.8105    0.6265 H   0  0  0  0  0  0  0  0  0  2  0  0
    3.1984   -3.3163    0.8088 H   0  0  0  0  0  0  0  0  0  3  0  0
    4.5489   -3.3610   -0.7548 O   0  0  0  0  0  0  0  0  0  4  0  0
    3.6064   -3.1278   -1.6330 C   0  0  0  0  0  0  0  0  0  5  0  0
    2.4243   -3.2338   -1.3669 O   0  0  0  0  0  0  0  0  0  6  0  0
    4.1578   -2.8025   -2.9871 C   0  0  0  0  0  0  0  0  0  7  0  0
    4.4294   -3.7515   -3.4628 H   0  0  0  0  0  0  0  0  0  8  0  0
    5.0801   -2.2119   -2.8649 H   0  0  0  0  0  0  0  0  0  9  0  0
    3.1581   -2.0424   -3.8713 C   0  0  0  0  0  0  0  0  0 10  0  0
    3.3609   -2.2440   -4.9192 H   0  0  0  0  0  0  0  0  0 11  0  0
    2.1540   -2.4029   -3.6450 H   0  0  0  0  0  0  0  0  0 12  0  0
    3.2284   -0.5272   -3.6162 C   0  0  0  0  0  0  0  0  0 13  0  0
    3.0287   -0.1776   -2.1671 C   0  0  0  0  0  0  0  0  0 14  0  0
    3.9599    0.0410   -1.4085 O   0  0  0  0  0  0  0  0  0 15  0  0
    1.7448   -0.1459   -1.7732 N   0  0  0  0  0  0  0  0  0 16  0  0
    1.0052   -0.3749   -2.4356 H   0  0  0  0  0  0  0  0  0 17  0  0
    1.3123    0.1934   -0.4201 C   0  0  1  0  0  0  0  0  0 18  0  0
    2.1899    0.6405    0.0409 H   0  0  0  0  0  0  0  0  0 54  0  0
    0.1547    1.1298   -0.4715 C   0  0  0  0  0  0  0  0  0 19  0  0
   -0.9433    1.0317    0.3624 C   0  0  0  0  0  0  0  0  0 20  0  0
   -1.7684    2.0495    0.0184 N   0  0  0  0  0  0  0  0  0 21  0  0
   -3.0267    2.4002    0.5370 C   0  0  0  0  0  0  0  0  0 25  0  0
   -3.2786    2.4118    1.9100 C   0  0  0  0  0  0  0  0  0 26  0  0
   -2.4937    2.1691    2.6030 H   0  0  0  0  0  0  0  0  0 38  0  0
   -4.5268    2.7916    2.3727 C   0  0  0  0  0  0  0  0  0 27  0  0
   -4.7062    2.7896    3.4350 H   0  0  0  0  0  0  0  0  0 37  0  0
   -5.5328    3.1662    1.5026 C   0  0  0  0  0  0  0  0  0 28  0  0
   -6.8766    3.5786    2.0110 C   0  0  0  0  0  0  0  0  0 33  0  0
   -6.9340    4.6692    2.0852 H   0  0  0  0  0  0  0  0  0 34  0  0
   -7.0736    3.1570    2.9990 H   0  0  0  0  0  0  0  0  0 35  0  0
   -7.6645    3.2476    1.3352 H   0  0  0  0  0  0  0  0  0 36  0  0
   -5.2653    3.1717    0.1314 C   0  0  0  0  0  0  0  0  0 29  0  0
   -6.0437    3.4778   -0.5653 H   0  0  0  0  0  0  0  0  0 32  0  0
   -4.0213    2.8103   -0.3469 C   0  0  0  0  0  0  0  0  0 30  0  0
   -3.8097    2.8231   -1.3988 H   0  0  0  0  0  0  0  0  0 31  0  0
   -1.2797    2.7578   -1.0101 N   0  0  0  0  0  0  0  0  0 22  0  0
   -0.1031    2.2232   -1.3035 C   0  0  0  0  0  0  0  0  0 23  0  0
    0.4932    2.6204   -2.0987 H   0  0  0  0  0  0  0  0  0 24  0  0
   -1.1893   -0.0316    1.3695 C   0  0  0  0  0  0  0  0  0 39  0  0
   -1.5924    0.3985    2.2910 H   0  0  0  0  0  0  0  0  0 40  0  0
   -1.9125   -0.7394    0.9723 H   0  0  0  0  0  0  0  0  0 41  0  0
    0.1432   -0.7495    1.6759 C   0  0  1  0  0  0  0  0  0 42  0  0
    1.0444    0.1194    2.5629 C   0  0  0  0  0  0  0  0  0 43  0  0
    0.6173    0.1581    3.5654 H   0  0  0  0  0  0  0  0  0 44  0  0
    1.1590    1.1187    2.1665 H   0  0  0  0  0  0  0  0  0 45  0  0
    2.0316   -0.3383    2.6324 H   0  0  0  0  0  0  0  0  0 46  0  0
   -0.1840   -2.0491    2.4078 C   0  0  0  0  0  0  0  0  0 47  0  0
   -0.6994   -2.7420    1.7458 H   0  0  0  0  0  0  0  0  0 48  0  0
    0.7167   -2.5271    2.7488 H   0  0  0  0  0  0  0  0  0 49  0  0
   -0.8271   -1.8560    3.2685 H   0  0  0  0  0  0  0  0  0 50  0  0
    0.8750   -1.0566    0.3669 C   0  0  0  0  0  0  0  0  0 51  0  0
    0.2228   -1.6489   -0.2915 H   0  0  0  0  0  0  0  0  0 52  0  0
    1.7463   -1.6749    0.5870 H   0  0  0  0  0  0  0  0  0 53  0  0
    4.2119   -0.1604   -3.9107 H   0  0  0  0  0  0  0  0  0 55  0  0
    2.4811   -0.0084   -4.2281 H   0  0  0  0  0  0  0  0  0 56  0  0
  1  2  1  0
  1  3  1  0
  1  4  1  0
  1  5  1  0
  5  6  1  0
  6  7  2  0
  6  8  1  0
  8  9  1  0
  8 10  1  0
  8 11  1  0
 11 12  1  0
 11 13  1  0
 11 14  1  0
 14 15  1  0
 15 16  2  0
 15 17  1  0
 17 18  1  0
 17 19  1  0
 19 20  1  6
 19 21  1  0
 21 22  4  0
 22 23  4  0
 23 24  1  0
 24 25  4  0
 25 26  1  0
 25 27  4  0
 27 28  1  0
 27 29  4  0
 29 30  1  0
 30 31  1  0
 30 32  1  0
 30 33  1  0
 29 34  4  0
 34 35  1  0
 34 36  4  0
 36 37  1  0
 23 38  4  0
 38 39  4  0
 39 40  1  0
 22 41  1  0
 41 42  1  0
 41 43  1  0
 41 44  1  0
 44 45  1  1
 45 46  1  0
 45 47  1  0
 45 48  1  0
 44 49  1  0
 49 50  1  0
 49 51  1  0
 49 52  1  0
 44 53  1  0
 53 54  1  0
 53 55  1  0
 14 56  1  0
 14 57  1  0
 53 19  1  0
 39 21  4  0
 36 24  4  0
M  END
>  <sample_id>  (183)
train::COC(=O)CCCC(=O)NC1CC(C)(C)Cc2c1cnn2-c1ccc(C)cc1__gen0002

>  <partition>  (183)
BAT_EXTERNAL_CONFIRM

>  <method>  (183)
BA_seed193

>  <candidate>  (183)
primary

$$$$
train::COc1ccc(C(=O)NCCn2cc(SCC(=O)NCC3CCCO3)c3ccccc32)cc1OC__gen0000
     RDKit          3D

 66 69  0  0  0  0  0  0  0  0999 V2000
   -1.6132   -5.0790    2.0100 C   0  0  0  0  0  0  0  0  0  0  0  0
   -2.5268   -5.6584    1.9766 H   0  0  0  0  0  0  0  0  0  1  0  0
   -2.0076   -3.7345    2.0034 O   0  0  0  0  0  0  0  0  0  2  0  0
   -1.0584   -2.7722    1.9563 C   0  0  0  0  0  0  0  0  0  3  0  0
    0.3091   -2.9922    2.0665 C   0  0  0  0  0  0  0  0  0  4  0  0
    0.6914   -3.9985    2.1673 H   0  0  0  0  0  0  0  0  0 63  0  0
    1.2000   -1.9352    2.0282 C   0  0  0  0  0  0  0  0  0  5  0  0
    2.2655   -2.1134    2.0894 H   0  0  0  0  0  0  0  0  0 62  0  0
    0.7367   -0.6447    1.8811 C   0  0  0  0  0  0  0  0  0  6  0  0
    1.7106    0.4864    1.8114 C   0  0  0  0  0  0  0  0  0 15  0  0
    2.6507    0.5021    1.0208 O   0  0  0  0  0  0  0  0  0 16  0  0
    1.4790    1.4914    2.6833 N   0  0  0  0  0  0  0  0  0 17  0  0
    0.6668    1.4366    3.2865 H   0  0  0  0  0  0  0  0  0 18  0  0
    2.2559    2.7003    2.7139 C   0  0  0  0  0  0  0  0  0 19  0  0
    2.5527    2.9269    3.7344 H   0  0  0  0  0  0  0  0  0 20  0  0
    3.1446    2.5051    2.1033 H   0  0  0  0  0  0  0  0  0 21  0  0
    1.4976    3.8835    2.1293 C   0  0  0  0  0  0  0  0  0 22  0  0
    1.0300    3.6296    0.7856 N   0  0  0  0  0  0  0  0  0 23  0  0
    1.8997    3.4996   -0.2977 C   0  0  0  0  0  0  0  0  0 24  0  0
    2.9285    3.7089   -0.1837 H   0  0  0  0  0  0  0  0  0 59  0  0
    1.1869    3.1315   -1.3978 C   0  0  0  0  0  0  0  0  0 25  0  0
    1.7242    2.9434   -3.0623 S   0  0  0  0  0  0  0  0  0 36  0  0
    3.0958    1.7231   -2.8906 C   0  0  0  0  0  0  0  0  0 37  0  0
    2.5223    0.3144   -2.9683 C   0  0  0  0  0  0  0  0  0 38  0  0
    2.5050   -0.3501   -3.9865 O   0  0  0  0  0  0  0  0  0 39  0  0
    2.0496   -0.1179   -1.7783 N   0  0  0  0  0  0  0  0  0 40  0  0
    2.0717    0.5175   -1.0145 H   0  0  0  0  0  0  0  0  0 41  0  0
    1.3547   -1.3813   -1.5920 C   0  0  0  0  0  0  0  0  0 42  0  0
    1.4586   -1.6045   -0.5091 H   0  0  0  0  0  0  0  0  0 43  0  0
   -0.1541   -1.3066   -1.8647 C   0  0  1  0  0  0  0  0  0 44  0  0
   -0.5239   -0.3103   -1.6716 H   0  0  0  0  0  0  0  0  0 45  0  0
   -0.4049   -1.8472   -3.2807 C   0  0  0  0  0  0  0  0  0 46  0  0
    0.5336   -2.0426   -3.8071 H   0  0  0  0  0  0  0  0  0 47  0  0
   -0.9956   -1.1437   -3.8607 H   0  0  0  0  0  0  0  0  0 48  0  0
   -1.1548   -3.1663   -3.0629 C   0  0  0  0  0  0  0  0  0 49  0  0
   -0.7772   -3.9974   -3.6545 H   0  0  0  0  0  0  0  0  0 50  0  0
   -2.2169   -3.0411   -3.2471 H   0  0  0  0  0  0  0  0  0 55  0  0
   -0.9534   -3.4090   -1.5715 C   0  0  0  0  0  0  0  0  0 51  0  0
   -1.7573   -3.9554   -1.0937 H   0  0  0  0  0  0  0  0  0 52  0  0
   -0.0009   -3.9452   -1.3992 H   0  0  0  0  0  0  0  0  0 54  0  0
   -0.8993   -2.1376   -1.0004 O   0  0  0  0  0  0  0  0  0 53  0  0
    1.8038   -2.1511   -2.2037 H   0  0  0  0  0  0  0  0  0 56  0  0
    3.6311    1.8365   -1.9667 H   0  0  0  0  0  0  0  0  0 57  0  0
    3.7283    1.9345   -3.7546 H   0  0  0  0  0  0  0  0  0 58  0  0
   -0.1821    3.0285   -1.0151 C   0  0  0  0  0  0  0  0  0 26  0  0
   -1.3577    2.7254   -1.7012 C   0  0  0  0  0  0  0  0  0 27  0  0
   -1.3388    2.5130   -2.7631 H   0  0  0  0  0  0  0  0  0 35  0  0
   -2.5255    2.6839   -0.9836 C   0  0  0  0  0  0  0  0  0 28  0  0
   -3.4567    2.4549   -1.4755 H   0  0  0  0  0  0  0  0  0 34  0  0
   -2.5733    2.9662    0.3880 C   0  0  0  0  0  0  0  0  0 29  0  0
   -3.5251    2.9501    0.9239 H   0  0  0  0  0  0  0  0  0 33  0  0
   -1.4154    3.2595    1.0827 C   0  0  0  0  0  0  0  0  0 30  0  0
   -1.4578    3.4860    2.1616 H   0  0  0  0  0  0  0  0  0 32  0  0
   -0.2267    3.3049    0.3673 C   0  0  0  0  0  0  0  0  0 31  0  0
    0.6157    4.1127    2.7459 H   0  0  0  0  0  0  0  0  0 60  0  0
    2.1355    4.7731    2.1158 H   0  0  0  0  0  0  0  0  0 61  0  0
   -0.6398   -0.4019    1.7898 C   0  0  0  0  0  0  0  0  0  7  0  0
   -0.9681    0.6200    1.6147 H   0  0  0  0  0  0  0  0  0 14  0  0
   -1.5252   -1.4539    1.8017 C   0  0  0  0  0  0  0  0  0  8  0  0
   -2.8784   -1.3497    1.6817 O   0  0  0  0  0  0  0  0  0  9  0  0
   -3.4382   -0.0892    1.5134 C   0  0  0  0  0  0  0  0  0 10  0  0
   -3.2911    0.5378    2.3871 H   0  0  0  0  0  0  0  0  0 11  0  0
   -4.5061   -0.2476    1.3646 H   0  0  0  0  0  0  0  0  0 12  0  0
   -3.0242    0.4316    0.6358 H   0  0  0  0  0  0  0  0  0 13  0  0
   -1.0093   -5.3169    1.1261 H   0  0  0  0  0  0  0  0  0 64  0  0
   -1.0517   -5.3242    2.9110 H   0  0  0  0  0  0  0  0  0 65  0  0
  1  2  1  0
  1  3  1  0
  3  4  1  0
  4  5  4  0
  5  6  1  0
  5  7  4  0
  7  8  1  0
  7  9  4  0
  9 10  1  0
 10 11  2  0
 10 12  1  0
 12 13  1  0
 12 14  1  0
 14 15  1  0
 14 16  1  0
 14 17  1  0
 17 18  1  0
 18 19  4  0
 19 20  1  0
 19 21  4  0
 21 22  1  0
 22 23  1  0
 23 24  1  0
 24 25  2  0
 24 26  1  0
 26 27  1  0
 26 28  1  0
 28 29  1  0
 28 30  1  0
 30 31  1  6
 30 32  1  0
 32 33  1  0
 32 34  1  0
 32 35  1  0
 35 36  1  0
 35 37  1  0
 35 38  1  0
 38 39  1  0
 38 40  1  0
 38 41  1  0
 28 42  1  0
 23 43  1  0
 23 44  1  0
 21 45  4  0
 45 46  4  0
 46 47  1  0
 46 48  4  0
 48 49  1  0
 48 50  4  0
 50 51  1  0
 50 52  4  0
 52 53  1  0
 52 54  4  0
 17 55  1  0
 17 56  1  0
  9 57  4  0
 57 58  1  0
 57 59  4  0
 59 60  1  0
 60 61  1  0
 61 62  1  0
 61 63  1  0
 61 64  1  0
  1 65  1  0
  1 66  1  0
 59  4  4  0
 54 18  4  0
 41 30  1  0
 54 45  4  0
M  END
>  <sample_id>  (184)
train::COc1ccc(C(=O)NCCn2cc(SCC(=O)NCC3CCCO3)c3ccccc32)cc1OC__gen0000

>  <partition>  (184)
BAT_EXTERNAL_CONFIRM

>  <method>  (184)
BA_seed193

>  <candidate>  (184)
primary

$$$$
train::COc1ccc(C(=O)NCCn2cc(SCC(=O)NCC3CCCO3)c3ccccc32)cc1OC__gen0001
     RDKit          3D

 66 69  0  0  0  0  0  0  0  0999 V2000
    3.4575   -2.7841   -4.7665 C   0  0  0  0  0  0  0  0  0  0  0  0
    3.4484   -2.9299   -5.8486 H   0  0  0  0  0  0  0  0  0  1  0  0
    2.9693   -1.4850   -4.5467 O   0  0  0  0  0  0  0  0  0  2  0  0
    2.8826   -1.0244   -3.2680 C   0  0  0  0  0  0  0  0  0  3  0  0
    3.2601   -1.7580   -2.1385 C   0  0  0  0  0  0  0  0  0  4  0  0
    3.6218   -2.7601   -2.2424 H   0  0  0  0  0  0  0  0  0 63  0  0
    3.1461   -1.2121   -0.8684 C   0  0  0  0  0  0  0  0  0  5  0  0
    3.4282   -1.8317   -0.0331 H   0  0  0  0  0  0  0  0  0 62  0  0
    2.6455    0.0743   -0.7056 C   0  0  0  0  0  0  0  0  0  6  0  0
    2.3400    0.6743    0.6160 C   0  0  0  0  0  0  0  0  0 15  0  0
    1.5300    1.5855    0.7449 O   0  0  0  0  0  0  0  0  0 16  0  0
    2.9988    0.2094    1.6836 N   0  0  0  0  0  0  0  0  0 17  0  0
    3.6154   -0.5861    1.5567 H   0  0  0  0  0  0  0  0  0 18  0  0
    2.6613    0.6173    3.0172 C   0  0  0  0  0  0  0  0  0 19  0  0
    3.5898    0.8820    3.5413 H   0  0  0  0  0  0  0  0  0 20  0  0
    2.0182    1.4851    2.9410 H   0  0  0  0  0  0  0  0  0 21  0  0
    1.9471   -0.4873    3.8005 C   0  0  0  0  0  0  0  0  0 22  0  0
    0.5958   -0.7196    3.3587 N   0  0  0  0  0  0  0  0  0 23  0  0
    0.2215   -1.6068    2.4160 C   0  0  0  0  0  0  0  0  0 24  0  0
    0.9462   -2.2372    1.9487 H   0  0  0  0  0  0  0  0  0 59  0  0
   -1.1414   -1.5761    2.2556 C   0  0  0  0  0  0  0  0  0 25  0  0
   -2.2172   -2.6304    1.3668 S   0  0  0  0  0  0  0  0  0 36  0  0
   -1.2868   -2.8690   -0.1868 C   0  0  0  0  0  0  0  0  0 37  0  0
   -0.7159   -1.5933   -0.7890 C   0  0  0  0  0  0  0  0  0 38  0  0
    0.4992   -1.5389   -0.9178 O   0  0  0  0  0  0  0  0  0 39  0  0
   -1.6047   -0.6511   -1.1385 N   0  0  0  0  0  0  0  0  0 40  0  0
   -2.5859   -0.7756   -0.9222 H   0  0  0  0  0  0  0  0  0 41  0  0
   -1.2673    0.6253   -1.7812 C   0  0  0  0  0  0  0  0  0 42  0  0
   -0.4157    1.0742   -1.2704 H   0  0  0  0  0  0  0  0  0 43  0  0
   -2.4480    1.5610   -1.8682 C   0  0  1  0  0  0  0  0  0 44  0  0
   -2.4670    2.0470   -2.8254 H   0  0  0  0  0  0  0  0  0 45  0  0
   -3.7860    0.8743   -1.5222 C   0  0  0  0  0  0  0  0  0 46  0  0
   -4.5829    1.2829   -2.1348 H   0  0  0  0  0  0  0  0  0 47  0  0
   -3.7384   -0.2011   -1.7717 H   0  0  0  0  0  0  0  0  0 48  0  0
   -3.9931    1.1746   -0.0463 C   0  0  0  0  0  0  0  0  0 49  0  0
   -3.4301    0.5258    0.6116 H   0  0  0  0  0  0  0  0  0 50  0  0
   -5.0382    1.1202    0.2030 H   0  0  0  0  0  0  0  0  0 55  0  0
   -3.3848    2.5659    0.0201 C   0  0  0  0  0  0  0  0  0 51  0  0
   -2.9923    2.8525    0.9965 H   0  0  0  0  0  0  0  0  0 52  0  0
   -4.1215    3.3017   -0.2711 H   0  0  0  0  0  0  0  0  0 54  0  0
   -2.3105    2.5808   -0.8812 O   0  0  0  0  0  0  0  0  0 53  0  0
   -0.9484    0.4330   -2.8564 H   0  0  0  0  0  0  0  0  0 56  0  0
   -0.4222   -3.5134   -0.0465 H   0  0  0  0  0  0  0  0  0 57  0  0
   -2.0042   -3.3320   -0.8708 H   0  0  0  0  0  0  0  0  0 58  0  0
   -1.6658   -0.5892    3.1461 C   0  0  0  0  0  0  0  0  0 26  0  0
   -2.9301   -0.1070    3.4164 C   0  0  0  0  0  0  0  0  0 27  0  0
   -3.7916   -0.4981    2.8779 H   0  0  0  0  0  0  0  0  0 35  0  0
   -3.0515    0.9115    4.3257 C   0  0  0  0  0  0  0  0  0 28  0  0
   -4.0237    1.2917    4.5762 H   0  0  0  0  0  0  0  0  0 34  0  0
   -1.9437    1.4156    4.9853 C   0  0  0  0  0  0  0  0  0 29  0  0
   -2.0877    2.2210    5.7019 H   0  0  0  0  0  0  0  0  0 33  0  0
   -0.6698    0.9799    4.7424 C   0  0  0  0  0  0  0  0  0 30  0  0
    0.1695    1.4133    5.2277 H   0  0  0  0  0  0  0  0  0 32  0  0
   -0.5298   -0.0334    3.7882 C   0  0  0  0  0  0  0  0  0 31  0  0
    2.5068   -1.4121    3.7068 H   0  0  0  0  0  0  0  0  0 60  0  0
    1.8996   -0.2104    4.8575 H   0  0  0  0  0  0  0  0  0 61  0  0
    2.3112    0.8148   -1.8336 C   0  0  0  0  0  0  0  0  0  7  0  0
    1.9201    1.8043   -1.6693 H   0  0  0  0  0  0  0  0  0 14  0  0
    2.3881    0.2870   -3.1083 C   0  0  0  0  0  0  0  0  0  8  0  0
    2.0405    0.9650   -4.2293 O   0  0  0  0  0  0  0  0  0  9  0  0
    1.4295    2.1967   -4.1073 C   0  0  0  0  0  0  0  0  0 10  0  0
    1.1178    2.4750   -5.1106 H   0  0  0  0  0  0  0  0  0 11  0  0
    0.5628    2.1251   -3.4432 H   0  0  0  0  0  0  0  0  0 12  0  0
    2.1480    2.9404   -3.7079 H   0  0  0  0  0  0  0  0  0 13  0  0
    2.7972   -3.5301   -4.2980 H   0  0  0  0  0  0  0  0  0 64  0  0
    4.4824   -2.9050   -4.4048 H   0  0  0  0  0  0  0  0  0 65  0  0
  1  2  1  0
  1  3  1  0
  3  4  1  0
  4  5  4  0
  5  6  1  0
  5  7  4  0
  7  8  1  0
  7  9  4  0
  9 10  1  0
 10 11  2  0
 10 12  1  0
 12 13  1  0
 12 14  1  0
 14 15  1  0
 14 16  1  0
 14 17  1  0
 17 18  1  0
 18 19  4  0
 19 20  1  0
 19 21  4  0
 21 22  1  0
 22 23  1  0
 23 24  1  0
 24 25  2  0
 24 26  1  0
 26 27  1  0
 26 28  1  0
 28 29  1  0
 28 30  1  0
 30 31  1  6
 30 32  1  0
 32 33  1  0
 32 34  1  0
 32 35  1  0
 35 36  1  0
 35 37  1  0
 35 38  1  0
 38 39  1  0
 38 40  1  0
 38 41  1  0
 28 42  1  0
 23 43  1  0
 23 44  1  0
 21 45  4  0
 45 46  4  0
 46 47  1  0
 46 48  4  0
 48 49  1  0
 48 50  4  0
 50 51  1  0
 50 52  4  0
 52 53  1  0
 52 54  4  0
 17 55  1  0
 17 56  1  0
  9 57  4  0
 57 58  1  0
 57 59  4  0
 59 60  1  0
 60 61  1  0
 61 62  1  0
 61 63  1  0
 61 64  1  0
  1 65  1  0
  1 66  1  0
 59  4  4  0
 54 18  4  0
 41 30  1  0
 54 45  4  0
M  END
>  <sample_id>  (185)
train::COc1ccc(C(=O)NCCn2cc(SCC(=O)NCC3CCCO3)c3ccccc32)cc1OC__gen0001

>  <partition>  (185)
BAT_EXTERNAL_CONFIRM

>  <method>  (185)
BA_seed193

>  <candidate>  (185)
primary

$$$$
train::COc1ccc(C(=O)NCCn2cc(SCC(=O)NCC3CCCO3)c3ccccc32)cc1OC__gen0002
     RDKit          3D

 66 69  0  0  0  0  0  0  0  0999 V2000
    5.3881   -2.3819    1.2083 C   0  0  0  0  0  0  0  0  0  0  0  0
    6.2349   -1.8153    0.8029 H   0  0  0  0  0  0  0  0  0  1  0  0
    4.5947   -2.9044    0.1623 O   0  0  0  0  0  0  0  0  0  2  0  0
    3.8904   -2.0352   -0.6083 C   0  0  0  0  0  0  0  0  0  3  0  0
    4.0120   -0.6558   -0.5532 C   0  0  0  0  0  0  0  0  0  4  0  0
    4.7295   -0.1939    0.1040 H   0  0  0  0  0  0  0  0  0 63  0  0
    3.2183    0.1481   -1.3522 C   0  0  0  0  0  0  0  0  0  5  0  0
    3.3020    1.2255   -1.3060 H   0  0  0  0  0  0  0  0  0 62  0  0
    2.2688   -0.4111   -2.1848 C   0  0  0  0  0  0  0  0  0  6  0  0
    1.3353    0.5207   -2.8726 C   0  0  0  0  0  0  0  0  0 15  0  0
    1.6022    1.7161   -2.9721 O   0  0  0  0  0  0  0  0  0 16  0  0
    0.1647    0.0129   -3.3295 N   0  0  0  0  0  0  0  0  0 17  0  0
   -0.0462   -0.9455   -3.1053 H   0  0  0  0  0  0  0  0  0 18  0  0
   -0.9623    0.9039   -3.4300 C   0  0  0  0  0  0  0  0  0 19  0  0
   -0.5477    1.9014   -3.5879 H   0  0  0  0  0  0  0  0  0 20  0  0
   -1.5758    0.6228   -4.2816 H   0  0  0  0  0  0  0  0  0 21  0  0
   -1.8092    0.8773   -2.1185 C   0  0  0  0  0  0  0  0  0 22  0  0
   -0.9565    0.7324   -0.9784 N   0  0  0  0  0  0  0  0  0 23  0  0
   -0.1659    1.7140   -0.4452 C   0  0  0  0  0  0  0  0  0 24  0  0
   -0.2493    2.7337   -0.7616 H   0  0  0  0  0  0  0  0  0 59  0  0
    0.6951    1.1737    0.4713 C   0  0  0  0  0  0  0  0  0 25  0  0
    1.9681    1.9692    1.4078 S   0  0  0  0  0  0  0  0  0 36  0  0
    1.1038    3.4231    2.0000 C   0  0  0  0  0  0  0  0  0 37  0  0
   -0.1291    3.0064    2.8173 C   0  0  0  0  0  0  0  0  0 38  0  0
    0.0069    2.5063    3.9249 O   0  0  0  0  0  0  0  0  0 39  0  0
   -1.3118    3.1716    2.2126 N   0  0  0  0  0  0  0  0  0 40  0  0
   -1.2937    3.3863    1.2288 H   0  0  0  0  0  0  0  0  0 41  0  0
   -2.5465    2.6764    2.7833 C   0  0  0  0  0  0  0  0  0 42  0  0
   -3.2804    3.4639    2.6341 H   0  0  0  0  0  0  0  0  0 43  0  0
   -2.9518    1.3286    2.1299 C   0  0  1  0  0  0  0  0  0 44  0  0
   -2.1490    0.5919    2.2271 H   0  0  0  0  0  0  0  0  0 45  0  0
   -4.2920    0.8282    2.6782 C   0  0  0  0  0  0  0  0  0 46  0  0
   -4.4984    1.2193    3.6733 H   0  0  0  0  0  0  0  0  0 47  0  0
   -4.2728   -0.2735    2.7329 H   0  0  0  0  0  0  0  0  0 48  0  0
   -5.3012    1.2984    1.6288 C   0  0  0  0  0  0  0  0  0 49  0  0
   -5.9732    0.4819    1.3473 H   0  0  0  0  0  0  0  0  0 50  0  0
   -5.9385    2.1185    1.9775 H   0  0  0  0  0  0  0  0  0 55  0  0
   -4.4480    1.8357    0.4796 C   0  0  0  0  0  0  0  0  0 51  0  0
   -4.7260    1.4304   -0.4992 H   0  0  0  0  0  0  0  0  0 52  0  0
   -4.5046    2.9286    0.4159 H   0  0  0  0  0  0  0  0  0 54  0  0
   -3.1160    1.4421    0.7259 O   0  0  0  0  0  0  0  0  0 53  0  0
   -2.4335    2.4670    3.8534 H   0  0  0  0  0  0  0  0  0 56  0  0
    1.8503    3.9086    2.6300 H   0  0  0  0  0  0  0  0  0 57  0  0
    0.8013    4.0690    1.1754 H   0  0  0  0  0  0  0  0  0 58  0  0
    0.4339   -0.2263    0.5193 C   0  0  0  0  0  0  0  0  0 26  0  0
    0.9877   -1.2960    1.2342 C   0  0  0  0  0  0  0  0  0 27  0  0
    1.7560   -1.1091    1.9826 H   0  0  0  0  0  0  0  0  0 35  0  0
    0.5076   -2.5655    0.9788 C   0  0  0  0  0  0  0  0  0 28  0  0
    0.9205   -3.4070    1.5083 H   0  0  0  0  0  0  0  0  0 34  0  0
   -0.4969   -2.7827    0.0402 C   0  0  0  0  0  0  0  0  0 29  0  0
   -0.8549   -3.7885   -0.1292 H   0  0  0  0  0  0  0  0  0 33  0  0
   -1.0562   -1.7563   -0.6778 C   0  0  0  0  0  0  0  0  0 30  0  0
   -1.8469   -1.9389   -1.3916 H   0  0  0  0  0  0  0  0  0 32  0  0
   -0.5898   -0.4710   -0.4169 C   0  0  0  0  0  0  0  0  0 31  0  0
   -2.5168    0.0606   -2.1421 H   0  0  0  0  0  0  0  0  0 60  0  0
   -2.3636    1.8163   -2.0135 H   0  0  0  0  0  0  0  0  0 61  0  0
    2.1715   -1.8016   -2.2796 C   0  0  0  0  0  0  0  0  0  7  0  0
    1.4762   -2.2578   -2.9736 H   0  0  0  0  0  0  0  0  0 14  0  0
    2.9626   -2.6143   -1.4870 C   0  0  0  0  0  0  0  0  0  8  0  0
    2.9341   -3.9796   -1.4932 O   0  0  0  0  0  0  0  0  0  9  0  0
    2.0027   -4.6223   -2.3261 C   0  0  0  0  0  0  0  0  0 10  0  0
    2.1514   -5.6927   -2.1362 H   0  0  0  0  0  0  0  0  0 11  0  0
    2.2098   -4.4255   -3.3823 H   0  0  0  0  0  0  0  0  0 12  0  0
    0.9729   -4.3530   -2.0868 H   0  0  0  0  0  0  0  0  0 13  0  0
    5.7559   -3.2512    1.7524 H   0  0  0  0  0  0  0  0  0 64  0  0
    4.7951   -1.7544    1.8734 H   0  0  0  0  0  0  0  0  0 65  0  0
  1  2  1  0
  1  3  1  0
  3  4  1  0
  4  5  4  0
  5  6  1  0
  5  7  4  0
  7  8  1  0
  7  9  4  0
  9 10  1  0
 10 11  2  0
 10 12  1  0
 12 13  1  0
 12 14  1  0
 14 15  1  0
 14 16  1  0
 14 17  1  0
 17 18  1  0
 18 19  4  0
 19 20  1  0
 19 21  4  0
 21 22  1  0
 22 23  1  0
 23 24  1  0
 24 25  2  0
 24 26  1  0
 26 27  1  0
 26 28  1  0
 28 29  1  0
 28 30  1  0
 30 31  1  6
 30 32  1  0
 32 33  1  0
 32 34  1  0
 32 35  1  0
 35 36  1  0
 35 37  1  0
 35 38  1  0
 38 39  1  0
 38 40  1  0
 38 41  1  0
 28 42  1  0
 23 43  1  0
 23 44  1  0
 21 45  4  0
 45 46  4  0
 46 47  1  0
 46 48  4  0
 48 49  1  0
 48 50  4  0
 50 51  1  0
 50 52  4  0
 52 53  1  0
 52 54  4  0
 17 55  1  0
 17 56  1  0
  9 57  4  0
 57 58  1  0
 57 59  4  0
 59 60  1  0
 60 61  1  0
 61 62  1  0
 61 63  1  0
 61 64  1  0
  1 65  1  0
  1 66  1  0
 59  4  4  0
 54 18  4  0
 41 30  1  0
 54 45  4  0
M  END
>  <sample_id>  (186)
train::COc1ccc(C(=O)NCCn2cc(SCC(=O)NCC3CCCO3)c3ccccc32)cc1OC__gen0002

>  <partition>  (186)
BAT_EXTERNAL_CONFIRM

>  <method>  (186)
BA_seed193

>  <candidate>  (186)
primary

$$$$
train::CCOc1ccc(NS(=O)(=O)c2cc(NC(=O)CCS(=O)(=O)c3ccc(C)cc3)ccc2OC)cc1__gen0000
     RDKit          3D

 64 66  0  0  0  0  0  0  0  0999 V2000
    1.0571    8.0643   -6.1077 C   0  0  0  0  0  0  0  0  0  0  0  0
    1.6115    6.9977   -5.1961 C   0  0  0  0  0  0  0  0  0  1  0  0
    0.5306    6.2027   -4.7814 O   0  0  0  0  0  0  0  0  0  2  0  0
    0.7677    5.1612   -3.9335 C   0  0  0  0  0  0  0  0  0  3  0  0
   -0.3553    4.4204   -3.5453 C   0  0  0  0  0  0  0  0  0  4  0  0
   -1.3170    4.7079   -3.9499 H   0  0  0  0  0  0  0  0  0 58  0  0
   -0.2388    3.3355   -2.7019 C   0  0  0  0  0  0  0  0  0  5  0  0
   -1.1063    2.7621   -2.4338 H   0  0  0  0  0  0  0  0  0 57  0  0
    1.0182    2.9827   -2.1944 C   0  0  0  0  0  0  0  0  0  6  0  0
    1.1400    1.9289   -1.3071 N   0  0  0  0  0  0  0  0  0 11  0  0
   -0.0999    1.0693   -0.5886 S   0  0  2  0  0  6  0  0  0 12  0  0
   -0.8572    0.4149   -1.6264 O   0  0  0  0  0  0  0  0  0 13  0  0
   -0.7874    1.9351    0.3125 O   0  0  0  0  0  0  0  0  0 14  0  0
    0.6948   -0.1767    0.3716 C   0  0  0  0  0  0  0  0  0 15  0  0
    0.1496   -0.4469    1.6051 C   0  0  0  0  0  0  0  0  0 16  0  0
   -0.6625    0.1817    1.9439 H   0  0  0  0  0  0  0  0  0 55  0  0
    0.5758   -1.5285    2.3672 C   0  0  0  0  0  0  0  0  0 17  0  0
   -0.0356   -1.7523    3.5972 N   0  0  0  0  0  0  0  0  0 28  0  0
    0.0674   -2.8535    4.4061 C   0  0  0  0  0  0  0  0  0 29  0  0
    0.8259   -3.7613    4.1957 O   0  0  0  0  0  0  0  0  0 30  0  0
   -0.8715   -2.8194    5.6019 C   0  0  0  0  0  0  0  0  0 31  0  0
   -1.5447   -4.1733    5.7661 C   0  0  0  0  0  0  0  0  0 32  0  0
   -1.8990   -4.3581    6.7699 H   0  0  0  0  0  0  0  0  0 33  0  0
   -0.8914   -4.9817    5.4439 H   0  0  0  0  0  0  0  0  0 34  0  0
   -3.0519   -4.1940    4.7170 S   0  0  2  0  0  6  0  0  0 35  0  0
   -3.9316   -3.1987    5.2676 O   0  0  0  0  0  0  0  0  0 36  0  0
   -3.5333   -5.5590    4.6704 O   0  0  0  0  0  0  0  0  0 37  0  0
   -2.5489   -3.6787    3.0749 C   0  0  0  0  0  0  0  0  0 38  0  0
   -1.8490   -4.5604    2.2840 C   0  0  0  0  0  0  0  0  0 39  0  0
   -1.5675   -5.5282    2.6773 H   0  0  0  0  0  0  0  0  0 51  0  0
   -1.5439   -4.1977    0.9771 C   0  0  0  0  0  0  0  0  0 40  0  0
   -0.9953   -4.9116    0.3577 H   0  0  0  0  0  0  0  0  0 50  0  0
   -1.9495   -2.9770    0.4679 C   0  0  0  0  0  0  0  0  0 41  0  0
   -1.6871   -2.6419   -0.9639 C   0  0  0  0  0  0  0  0  0 46  0  0
   -1.0661   -3.4206   -1.4332 H   0  0  0  0  0  0  0  0  0 47  0  0
   -2.6210   -2.6471   -1.5260 H   0  0  0  0  0  0  0  0  0 48  0  0
   -1.2322   -1.6817   -1.0888 H   0  0  0  0  0  0  0  0  0 49  0  0
   -2.6344   -2.0925    1.2828 C   0  0  0  0  0  0  0  0  0 42  0  0
   -2.9478   -1.1421    0.9083 H   0  0  0  0  0  0  0  0  0 45  0  0
   -2.9381   -2.4465    2.5887 C   0  0  0  0  0  0  0  0  0 43  0  0
   -3.5202   -1.8054    3.2326 H   0  0  0  0  0  0  0  0  0 44  0  0
   -1.6383   -2.0440    5.4883 H   0  0  0  0  0  0  0  0  0 52  0  0
   -0.2948   -2.5884    6.4982 H   0  0  0  0  0  0  0  0  0 53  0  0
   -0.7613   -1.0980    3.8470 H   0  0  0  0  0  0  0  0  0 54  0  0
    1.5924   -2.3305    1.8449 C   0  0  0  0  0  0  0  0  0 18  0  0
    1.9220   -3.1766    2.4236 H   0  0  0  0  0  0  0  0  0 27  0  0
    2.1296   -2.0784    0.5976 C   0  0  0  0  0  0  0  0  0 19  0  0
    2.8978   -2.7210    0.2167 H   0  0  0  0  0  0  0  0  0 26  0  0
    1.6855   -0.9974   -0.1701 C   0  0  0  0  0  0  0  0  0 20  0  0
    2.1490   -0.6383   -1.3779 O   0  0  0  0  0  0  0  0  0 21  0  0
    3.0113   -1.5272   -2.0639 C   0  0  0  0  0  0  0  0  0 22  0  0
    3.1869   -1.0793   -3.0374 H   0  0  0  0  0  0  0  0  0 23  0  0
    2.5578   -2.5165   -2.1792 H   0  0  0  0  0  0  0  0  0 24  0  0
    3.9720   -1.6312   -1.5489 H   0  0  0  0  0  0  0  0  0 25  0  0
    2.0908    1.6860   -1.0408 H   0  0  0  0  0  0  0  0  0 56  0  0
    2.1297    3.7092   -2.5754 C   0  0  0  0  0  0  0  0  0  7  0  0
    3.1056    3.4530   -2.1841 H   0  0  0  0  0  0  0  0  0 10  0  0
    2.0096    4.7805   -3.4441 C   0  0  0  0  0  0  0  0  0  8  0  0
    2.9035    5.3305   -3.7149 H   0  0  0  0  0  0  0  0  0  9  0  0
    2.3455    6.3818   -5.7266 H   0  0  0  0  0  0  0  0  0 59  0  0
    2.1093    7.4512   -4.3311 H   0  0  0  0  0  0  0  0  0 60  0  0
    1.8592    8.7187   -6.4719 H   0  0  0  0  0  0  0  0  0 61  0  0
    0.3215    8.6773   -5.5824 H   0  0  0  0  0  0  0  0  0 62  0  0
    0.5609    7.6087   -6.9771 H   0  0  0  0  0  0  0  0  0 63  0  0
  1  2  1  0
  2  3  1  0
  3  4  1  0
  4  5  4  0
  5  6  1  0
  5  7  4  0
  7  8  1  0
  7  9  4  0
  9 10  1  0
 11 10  1  1
 11 12  2  0
 11 13  2  0
 11 14  1  0
 14 15  4  0
 15 16  1  0
 15 17  4  0
 17 18  1  0
 18 19  1  0
 19 20  2  0
 19 21  1  0
 21 22  1  0
 22 23  1  0
 22 24  1  0
 25 22  1  1
 25 26  2  0
 25 27  2  0
 25 28  1  0
 28 29  4  0
 29 30  1  0
 29 31  4  0
 31 32  1  0
 31 33  4  0
 33 34  1  0
 34 35  1  0
 34 36  1  0
 34 37  1  0
 33 38  4  0
 38 39  1  0
 38 40  4  0
 40 41  1  0
 21 42  1  0
 21 43  1  0
 18 44  1  0
 17 45  4  0
 45 46  1  0
 45 47  4  0
 47 48  1  0
 47 49  4  0
 49 50  1  0
 50 51  1  0
 51 52  1  0
 51 53  1  0
 51 54  1  0
 10 55  1  0
  9 56  4  0
 56 57  1  0
 56 58  4  0
 58 59  1  0
  2 60  1  0
  2 61  1  0
  1 62  1  0
  1 63  1  0
  1 64  1  0
 58  4  4  0
 49 14  4  0
 40 28  4  0
M  END
>  <sample_id>  (187)
train::CCOc1ccc(NS(=O)(=O)c2cc(NC(=O)CCS(=O)(=O)c3ccc(C)cc3)ccc2OC)cc1__gen0000

>  <partition>  (187)
BAT_EXTERNAL_CONFIRM

>  <method>  (187)
BA_seed193

>  <candidate>  (187)
primary

$$$$
train::CCOc1ccc(NS(=O)(=O)c2cc(NC(=O)CCS(=O)(=O)c3ccc(C)cc3)ccc2OC)cc1__gen0001
     RDKit          3D

 64 66  0  0  0  0  0  0  0  0999 V2000
    5.7346    5.3453   -1.9856 C   0  0  0  0  0  0  0  0  0  0  0  0
    4.4529    4.5689   -2.1902 C   0  0  0  0  0  0  0  0  0  1  0  0
    3.5175    5.0234   -1.1991 O   0  0  0  0  0  0  0  0  0  2  0  0
    2.2857    4.4760   -1.1379 C   0  0  0  0  0  0  0  0  0  3  0  0
    1.8070    3.4733   -1.9848 C   0  0  0  0  0  0  0  0  0  4  0  0
    2.4250    3.0672   -2.7725 H   0  0  0  0  0  0  0  0  0 58  0  0
    0.5152    3.0052   -1.8479 C   0  0  0  0  0  0  0  0  0  5  0  0
    0.1383    2.2367   -2.5064 H   0  0  0  0  0  0  0  0  0 57  0  0
   -0.3199    3.4862   -0.8563 C   0  0  0  0  0  0  0  0  0  6  0  0
   -1.6234    2.9996   -0.7087 N   0  0  0  0  0  0  0  0  0 11  0  0
   -2.0080    1.4334   -1.0422 S   0  0  1  0  0  6  0  0  0 12  0  0
   -3.2955    1.2455   -0.4306 O   0  0  0  0  0  0  0  0  0 13  0  0
   -1.9326    1.2026   -2.4678 O   0  0  0  0  0  0  0  0  0 14  0  0
   -0.8414    0.3228   -0.2966 C   0  0  0  0  0  0  0  0  0 15  0  0
   -0.6723   -0.8701   -0.9476 C   0  0  0  0  0  0  0  0  0 16  0  0
   -1.2648   -1.0532   -1.8278 H   0  0  0  0  0  0  0  0  0 55  0  0
    0.1836   -1.8469   -0.4503 C   0  0  0  0  0  0  0  0  0 17  0  0
    0.2029   -3.1043   -1.0862 N   0  0  0  0  0  0  0  0  0 28  0  0
    0.7981   -4.2297   -0.6289 C   0  0  0  0  0  0  0  0  0 29  0  0
    1.5808   -4.2789    0.2913 O   0  0  0  0  0  0  0  0  0 30  0  0
    0.2994   -5.4962   -1.3099 C   0  0  0  0  0  0  0  0  0 31  0  0
   -0.8410   -6.0766   -0.5133 C   0  0  0  0  0  0  0  0  0 32  0  0
   -1.1857   -7.0335   -0.8877 H   0  0  0  0  0  0  0  0  0 33  0  0
   -0.6050   -6.1655    0.5397 H   0  0  0  0  0  0  0  0  0 34  0  0
   -2.3434   -5.0355   -0.6342 S   0  0  2  0  0  6  0  0  0 35  0  0
   -3.4513   -5.9119   -0.2619 O   0  0  0  0  0  0  0  0  0 36  0  0
   -2.3659   -4.4594   -1.9586 O   0  0  0  0  0  0  0  0  0 37  0  0
   -2.3400   -3.6915    0.5461 C   0  0  0  0  0  0  0  0  0 38  0  0
   -3.0785   -2.5759    0.1696 C   0  0  0  0  0  0  0  0  0 39  0  0
   -3.5459   -2.5936   -0.7961 H   0  0  0  0  0  0  0  0  0 51  0  0
   -3.2017   -1.5172    1.0363 C   0  0  0  0  0  0  0  0  0 40  0  0
   -3.7982   -0.6666    0.7556 H   0  0  0  0  0  0  0  0  0 50  0  0
   -2.5803   -1.5457    2.2751 C   0  0  0  0  0  0  0  0  0 41  0  0
   -2.6889   -0.3551    3.1811 C   0  0  0  0  0  0  0  0  0 46  0  0
   -1.8545   -0.3260    3.8681 H   0  0  0  0  0  0  0  0  0 47  0  0
   -2.7035    0.5605    2.5785 H   0  0  0  0  0  0  0  0  0 48  0  0
   -3.6120   -0.3973    3.7285 H   0  0  0  0  0  0  0  0  0 49  0  0
   -1.8309   -2.6729    2.6392 C   0  0  0  0  0  0  0  0  0 42  0  0
   -1.3497   -2.7121    3.6023 H   0  0  0  0  0  0  0  0  0 45  0  0
   -1.7102   -3.7420    1.7812 C   0  0  0  0  0  0  0  0  0 43  0  0
   -1.1781   -4.6300    2.0702 H   0  0  0  0  0  0  0  0  0 44  0  0
   -0.0503   -5.2827   -2.3307 H   0  0  0  0  0  0  0  0  0 52  0  0
    1.1027   -6.2328   -1.3744 H   0  0  0  0  0  0  0  0  0 53  0  0
   -0.4555   -3.1660   -1.8487 H   0  0  0  0  0  0  0  0  0 54  0  0
    0.9427   -1.5544    0.6727 C   0  0  0  0  0  0  0  0  0 18  0  0
    1.6374   -2.2706    1.0658 H   0  0  0  0  0  0  0  0  0 27  0  0
    0.7842   -0.3401    1.3243 C   0  0  0  0  0  0  0  0  0 19  0  0
    1.3663   -0.1527    2.2103 H   0  0  0  0  0  0  0  0  0 26  0  0
   -0.1128    0.6236    0.8536 C   0  0  0  0  0  0  0  0  0 20  0  0
   -0.3855    1.8010    1.4732 O   0  0  0  0  0  0  0  0  0 21  0  0
    0.3358    2.0997    2.6460 C   0  0  0  0  0  0  0  0  0 22  0  0
    1.4195    2.1333    2.4628 H   0  0  0  0  0  0  0  0  0 23  0  0
    0.1160    1.3728    3.4412 H   0  0  0  0  0  0  0  0  0 24  0  0
   -0.0096    3.0875    2.9714 H   0  0  0  0  0  0  0  0  0 25  0  0
   -2.1057    3.3745    0.0942 H   0  0  0  0  0  0  0  0  0 56  0  0
    0.1526    4.4925   -0.0097 C   0  0  0  0  0  0  0  0  0  7  0  0
   -0.4850    4.8920    0.7611 H   0  0  0  0  0  0  0  0  0 10  0  0
    1.4279    4.9897   -0.1660 C   0  0  0  0  0  0  0  0  0  8  0  0
    1.8073    5.7665    0.4821 H   0  0  0  0  0  0  0  0  0  9  0  0
    4.6173    3.5034   -2.0415 H   0  0  0  0  0  0  0  0  0 59  0  0
    4.0221    4.7319   -3.1836 H   0  0  0  0  0  0  0  0  0 60  0  0
    5.5402    6.4238   -2.1084 H   0  0  0  0  0  0  0  0  0 61  0  0
    6.1367    5.1967   -1.0015 H   0  0  0  0  0  0  0  0  0 62  0  0
    6.4773    5.0516   -2.7277 H   0  0  0  0  0  0  0  0  0 63  0  0
  1  2  1  0
  2  3  1  0
  3  4  1  0
  4  5  4  0
  5  6  1  0
  5  7  4  0
  7  8  1  0
  7  9  4  0
  9 10  1  0
 11 10  1  6
 11 12  2  0
 11 13  2  0
 11 14  1  0
 14 15  4  0
 15 16  1  0
 15 17  4  0
 17 18  1  0
 18 19  1  0
 19 20  2  0
 19 21  1  0
 21 22  1  0
 22 23  1  0
 22 24  1  0
 25 22  1  6
 25 26  2  0
 25 27  2  0
 25 28  1  0
 28 29  4  0
 29 30  1  0
 29 31  4  0
 31 32  1  0
 31 33  4  0
 33 34  1  0
 34 35  1  0
 34 36  1  0
 34 37  1  0
 33 38  4  0
 38 39  1  0
 38 40  4  0
 40 41  1  0
 21 42  1  0
 21 43  1  0
 18 44  1  0
 17 45  4  0
 45 46  1  0
 45 47  4  0
 47 48  1  0
 47 49  4  0
 49 50  1  0
 50 51  1  0
 51 52  1  0
 51 53  1  0
 51 54  1  0
 10 55  1  0
  9 56  4  0
 56 57  1  0
 56 58  4  0
 58 59  1  0
  2 60  1  0
  2 61  1  0
  1 62  1  0
  1 63  1  0
  1 64  1  0
 58  4  4  0
 49 14  4  0
 40 28  4  0
M  END
>  <sample_id>  (188)
train::CCOc1ccc(NS(=O)(=O)c2cc(NC(=O)CCS(=O)(=O)c3ccc(C)cc3)ccc2OC)cc1__gen0001

>  <partition>  (188)
BAT_EXTERNAL_CONFIRM

>  <method>  (188)
BA_seed193

>  <candidate>  (188)
primary

$$$$
train::CCOc1ccc(NS(=O)(=O)c2cc(NC(=O)CCS(=O)(=O)c3ccc(C)cc3)ccc2OC)cc1__gen0002
     RDKit          3D

 64 66  0  0  0  0  0  0  0  0999 V2000
   -1.8008    4.3802    0.5335 C   0  0  0  0  0  0  0  0  0  0  0  0
   -1.9727    3.1526   -0.3304 C   0  0  0  0  0  0  0  0  0  1  0  0
   -0.6875    2.6511   -0.6694 O   0  0  0  0  0  0  0  0  0  2  0  0
   -0.5590    1.4714   -1.3384 C   0  0  0  0  0  0  0  0  0  3  0  0
   -1.5932    0.5672   -1.5845 C   0  0  0  0  0  0  0  0  0  4  0  0
   -2.6092    0.8008   -1.2734 H   0  0  0  0  0  0  0  0  0 58  0  0
   -1.3280   -0.6419   -2.2018 C   0  0  0  0  0  0  0  0  0  5  0  0
   -2.1401   -1.3213   -2.3776 H   0  0  0  0  0  0  0  0  0 57  0  0
   -0.0420   -0.9884   -2.5820 C   0  0  0  0  0  0  0  0  0  6  0  0
    0.2259   -2.2291   -3.1643 N   0  0  0  0  0  0  0  0  0 11  0  0
   -0.7939   -3.5221   -3.0331 S   0  0  1  0  0  6  0  0  0 12  0  0
   -1.9639   -3.2489   -3.7892 O   0  0  0  0  0  0  0  0  0 13  0  0
    0.0013   -4.6606   -3.3831 O   0  0  0  0  0  0  0  0  0 14  0  0
   -1.1773   -3.5974   -1.2589 C   0  0  0  0  0  0  0  0  0 15  0  0
   -0.2814   -3.1113   -0.3467 C   0  0  0  0  0  0  0  0  0 16  0  0
    0.6566   -2.7137   -0.6799 H   0  0  0  0  0  0  0  0  0 55  0  0
   -0.6360   -3.0361    0.9953 C   0  0  0  0  0  0  0  0  0 17  0  0
    0.2874   -2.4659    1.8829 N   0  0  0  0  0  0  0  0  0 28  0  0
   -0.0077   -1.8534    3.0655 C   0  0  0  0  0  0  0  0  0 29  0  0
   -1.1065   -1.8605    3.5976 O   0  0  0  0  0  0  0  0  0 30  0  0
    1.1852   -1.1963    3.7354 C   0  0  0  0  0  0  0  0  0 31  0  0
    1.7327    0.0747    3.0513 C   0  0  0  0  0  0  0  0  0 32  0  0
    1.4369    0.9772    3.5852 H   0  0  0  0  0  0  0  0  0 33  0  0
    2.8082    0.0497    2.9682 H   0  0  0  0  0  0  0  0  0 34  0  0
    1.1524    0.3097    1.3569 S   0  0  1  0  0  6  0  0  0 35  0  0
    1.7356   -0.7488    0.5576 O   0  0  0  0  0  0  0  0  0 36  0  0
   -0.2743    0.3862    1.3784 O   0  0  0  0  0  0  0  0  0 37  0  0
    1.9622    1.8121    0.9433 C   0  0  0  0  0  0  0  0  0 38  0  0
    1.4054    3.0214    1.3075 C   0  0  0  0  0  0  0  0  0 39  0  0
    0.4826    3.0124    1.8634 H   0  0  0  0  0  0  0  0  0 51  0  0
    2.0599    4.2018    0.9829 C   0  0  0  0  0  0  0  0  0 40  0  0
    1.6522    5.1504    1.2906 H   0  0  0  0  0  0  0  0  0 50  0  0
    3.2587    4.1924    0.2769 C   0  0  0  0  0  0  0  0  0 41  0  0
    3.9505    5.4660   -0.0926 C   0  0  0  0  0  0  0  0  0 46  0  0
    5.0346    5.3536    0.0024 H   0  0  0  0  0  0  0  0  0 47  0  0
    3.7491    5.7197   -1.1361 H   0  0  0  0  0  0  0  0  0 48  0  0
    3.6162    6.2864    0.5366 H   0  0  0  0  0  0  0  0  0 49  0  0
    3.7906    2.9664   -0.1131 C   0  0  0  0  0  0  0  0  0 42  0  0
    4.7082    2.9394   -0.6849 H   0  0  0  0  0  0  0  0  0 45  0  0
    3.1484    1.7855    0.2109 C   0  0  0  0  0  0  0  0  0 43  0  0
    3.5566    0.8251   -0.0672 H   0  0  0  0  0  0  0  0  0 44  0  0
    1.9942   -1.9054    3.8040 H   0  0  0  0  0  0  0  0  0 52  0  0
    0.8713   -0.9422    4.7492 H   0  0  0  0  0  0  0  0  0 53  0  0
    1.2059   -2.3130    1.4906 H   0  0  0  0  0  0  0  0  0 54  0  0
   -1.8642   -3.5444    1.3972 C   0  0  0  0  0  0  0  0  0 18  0  0
   -2.1662   -3.4744    2.4333 H   0  0  0  0  0  0  0  0  0 27  0  0
   -2.7524   -4.0595    0.4685 C   0  0  0  0  0  0  0  0  0 19  0  0
   -3.7066   -4.4346    0.8073 H   0  0  0  0  0  0  0  0  0 26  0  0
   -2.4132   -4.1087   -0.8835 C   0  0  0  0  0  0  0  0  0 20  0  0
   -3.1610   -4.6191   -1.8650 O   0  0  0  0  0  0  0  0  0 21  0  0
   -4.4241   -5.1456   -1.5433 C   0  0  0  0  0  0  0  0  0 22  0  0
   -4.3569   -6.0072   -0.8711 H   0  0  0  0  0  0  0  0  0 23  0  0
   -5.0790   -4.3924   -1.0965 H   0  0  0  0  0  0  0  0  0 24  0  0
   -4.8656   -5.4566   -2.4867 H   0  0  0  0  0  0  0  0  0 25  0  0
    1.2030   -2.4698   -3.2011 H   0  0  0  0  0  0  0  0  0 56  0  0
    0.9755   -0.0634   -2.3748 C   0  0  0  0  0  0  0  0  0  7  0  0
    1.9745   -0.3179   -2.6865 H   0  0  0  0  0  0  0  0  0 10  0  0
    0.7243    1.1493   -1.7795 C   0  0  0  0  0  0  0  0  0  8  0  0
    1.5173    1.8567   -1.6199 H   0  0  0  0  0  0  0  0  0  9  0  0
   -2.5484    2.4068    0.1996 H   0  0  0  0  0  0  0  0  0 59  0  0
   -2.4687    3.4504   -1.2454 H   0  0  0  0  0  0  0  0  0 60  0  0
   -0.9992    4.9902    0.1480 H   0  0  0  0  0  0  0  0  0 61  0  0
   -2.7397    4.9343    0.5794 H   0  0  0  0  0  0  0  0  0 62  0  0
   -1.5450    4.1084    1.5607 H   0  0  0  0  0  0  0  0  0 63  0  0
  1  2  1  0
  2  3  1  0
  3  4  1  0
  4  5  4  0
  5  6  1  0
  5  7  4  0
  7  8  1  0
  7  9  4  0
  9 10  1  0
 11 10  1  1
 11 12  2  0
 11 13  2  0
 11 14  1  0
 14 15  4  0
 15 16  1  0
 15 17  4  0
 17 18  1  0
 18 19  1  0
 19 20  2  0
 19 21  1  0
 21 22  1  0
 22 23  1  0
 22 24  1  0
 25 22  1  6
 25 26  2  0
 25 27  2  0
 25 28  1  0
 28 29  4  0
 29 30  1  0
 29 31  4  0
 31 32  1  0
 31 33  4  0
 33 34  1  0
 34 35  1  0
 34 36  1  0
 34 37  1  0
 33 38  4  0
 38 39  1  0
 38 40  4  0
 40 41  1  0
 21 42  1  0
 21 43  1  0
 18 44  1  0
 17 45  4  0
 45 46  1  0
 45 47  4  0
 47 48  1  0
 47 49  4  0
 49 50  1  0
 50 51  1  0
 51 52  1  0
 51 53  1  0
 51 54  1  0
 10 55  1  0
  9 56  4  0
 56 57  1  0
 56 58  4  0
 58 59  1  0
  2 60  1  0
  2 61  1  0
  1 62  1  0
  1 63  1  0
  1 64  1  0
 58  4  4  0
 49 14  4  0
 40 28  4  0
M  END
>  <sample_id>  (189)
train::CCOc1ccc(NS(=O)(=O)c2cc(NC(=O)CCS(=O)(=O)c3ccc(C)cc3)ccc2OC)cc1__gen0002

>  <partition>  (189)
BAT_EXTERNAL_CONFIRM

>  <method>  (189)
BA_seed193

>  <candidate>  (189)
primary

$$$$
train::NC(=O)c1cccnc1Oc1ccc(Cl)cc1Cl__gen0000
     RDKit          3D

 26 27  0  0  0  0  0  0  0  0999 V2000
   -0.1722    1.6972   -3.7740 N   0  0  0  0  0  0  0  0  0  0  0  0
    0.1609    1.6783   -2.4704 C   0  0  0  0  0  0  0  0  0  1  0  0
    1.2291    2.1173   -2.0741 O   0  0  0  0  0  0  0  0  0  2  0  0
   -0.8887    1.1326   -1.5598 C   0  0  0  0  0  0  0  0  0  3  0  0
   -2.2426    1.3320   -1.7900 C   0  0  0  0  0  0  0  0  0  4  0  0
   -2.5772    1.8808   -2.6614 H   0  0  0  0  0  0  0  0  0 23  0  0
   -3.1624    0.8573   -0.8784 C   0  0  0  0  0  0  0  0  0  5  0  0
   -4.2234    1.0008   -1.0304 H   0  0  0  0  0  0  0  0  0 22  0  0
   -2.6875    0.1942    0.2440 C   0  0  0  0  0  0  0  0  0  6  0  0
   -3.3717   -0.2099    0.9850 H   0  0  0  0  0  0  0  0  0 21  0  0
   -1.4070   -0.0106    0.4733 N   0  0  0  0  0  0  0  0  0  7  0  0
   -0.5228    0.4333   -0.3883 C   0  0  0  0  0  0  0  0  0  8  0  0
    0.7840    0.2249   -0.1836 O   0  0  0  0  0  0  0  0  0  9  0  0
    1.2037   -0.5057    0.8936 C   0  0  0  0  0  0  0  0  0 10  0  0
    2.1062    0.0672    1.7708 C   0  0  0  0  0  0  0  0  0 11  0  0
    2.4076    1.0911    1.5857 H   0  0  0  0  0  0  0  0  0 20  0  0
    2.6119   -0.6447    2.8473 C   0  0  0  0  0  0  0  0  0 12  0  0
    3.3241   -0.1775    3.5184 H   0  0  0  0  0  0  0  0  0 19  0  0
    2.2033   -1.9519    3.0487 C   0  0  0  0  0  0  0  0  0 13  0  0
    2.8015   -2.8329    4.3968 Cl  0  0  0  0  0  0  0  0  0 18  0  0
    1.3151   -2.5502    2.1759 C   0  0  0  0  0  0  0  0  0 14  0  0
    0.9875   -3.5662    2.3371 H   0  0  0  0  0  0  0  0  0 17  0  0
    0.8113   -1.8319    1.1063 C   0  0  0  0  0  0  0  0  0 15  0  0
   -0.2505   -2.6340    0.0034 Cl  0  0  0  0  0  0  0  0  0 16  0  0
    0.5241    2.0162   -4.4333 H   0  0  0  0  0  0  0  0  0 24  0  0
   -0.9644    1.1924   -4.1427 H   0  0  0  0  0  0  0  0  0 25  0  0
  1  2  1  0
  2  3  2  0
  2  4  1  0
  4  5  4  0
  5  6  1  0
  5  7  4  0
  7  8  1  0
  7  9  4  0
  9 10  1  0
  9 11  4  0
 11 12  4  0
 12 13  1  0
 13 14  1  0
 14 15  4  0
 15 16  1  0
 15 17  4  0
 17 18  1  0
 17 19  4  0
 19 20  1  0
 19 21  4  0
 21 22  1  0
 21 23  4  0
 23 24  1  0
  1 25  1  0
  1 26  1  0
 12  4  4  0
 23 14  4  0
M  END
>  <sample_id>  (190)
train::NC(=O)c1cccnc1Oc1ccc(Cl)cc1Cl__gen0000

>  <partition>  (190)
BAT_EXTERNAL_CONFIRM

>  <method>  (190)
BA_seed193

>  <candidate>  (190)
primary

$$$$
train::NC(=O)c1cccnc1Oc1ccc(Cl)cc1Cl__gen0001
     RDKit          3D

 26 27  0  0  0  0  0  0  0  0999 V2000
    2.9601    2.6832   -1.1999 N   0  0  0  0  0  0  0  0  0  0  0  0
    2.2964    1.8459   -0.3572 C   0  0  0  0  0  0  0  0  0  1  0  0
    2.9002    1.1303    0.4222 O   0  0  0  0  0  0  0  0  0  2  0  0
    0.8161    1.8922   -0.4712 C   0  0  0  0  0  0  0  0  0  3  0  0
    0.1121    3.0607   -0.6948 C   0  0  0  0  0  0  0  0  0  4  0  0
    0.6302    4.0019   -0.7900 H   0  0  0  0  0  0  0  0  0 23  0  0
   -1.2727    3.0244   -0.7437 C   0  0  0  0  0  0  0  0  0  5  0  0
   -1.8512    3.9215   -0.8907 H   0  0  0  0  0  0  0  0  0 22  0  0
   -1.8995    1.7991   -0.5673 C   0  0  0  0  0  0  0  0  0  6  0  0
   -2.9776    1.7071   -0.6108 H   0  0  0  0  0  0  0  0  0 21  0  0
   -1.2548    0.6757   -0.3659 N   0  0  0  0  0  0  0  0  0  7  0  0
    0.0621    0.7150   -0.2921 C   0  0  0  0  0  0  0  0  0  8  0  0
    0.7362   -0.4387   -0.1110 O   0  0  0  0  0  0  0  0  0  9  0  0
    0.0549   -1.5516    0.3180 C   0  0  0  0  0  0  0  0  0 10  0  0
    0.2180   -2.7328   -0.3810 C   0  0  0  0  0  0  0  0  0 11  0  0
    0.8101   -2.7227   -1.2808 H   0  0  0  0  0  0  0  0  0 20  0  0
   -0.4176   -3.8997    0.0244 C   0  0  0  0  0  0  0  0  0 12  0  0
   -0.2820   -4.8184   -0.5251 H   0  0  0  0  0  0  0  0  0 19  0  0
   -1.1898   -3.8811    1.1747 C   0  0  0  0  0  0  0  0  0 13  0  0
   -1.9743   -5.3269    1.7062 Cl  0  0  0  0  0  0  0  0  0 18  0  0
   -1.3473   -2.7138    1.9119 C   0  0  0  0  0  0  0  0  0 14  0  0
   -1.9547   -2.7126    2.7983 H   0  0  0  0  0  0  0  0  0 17  0  0
   -0.7283   -1.5541    1.4852 C   0  0  0  0  0  0  0  0  0 15  0  0
   -0.8988   -0.1161    2.4226 Cl  0  0  0  0  0  0  0  0  0 16  0  0
    2.4928    3.2963   -1.8384 H   0  0  0  0  0  0  0  0  0 24  0  0
    3.9595    2.7152   -1.1435 H   0  0  0  0  0  0  0  0  0 25  0  0
  1  2  1  0
  2  3  2  0
  2  4  1  0
  4  5  4  0
  5  6  1  0
  5  7  4  0
  7  8  1  0
  7  9  4  0
  9 10  1  0
  9 11  4  0
 11 12  4  0
 12 13  1  0
 13 14  1  0
 14 15  4  0
 15 16  1  0
 15 17  4  0
 17 18  1  0
 17 19  4  0
 19 20  1  0
 19 21  4  0
 21 22  1  0
 21 23  4  0
 23 24  1  0
  1 25  1  0
  1 26  1  0
 12  4  4  0
 23 14  4  0
M  END
>  <sample_id>  (191)
train::NC(=O)c1cccnc1Oc1ccc(Cl)cc1Cl__gen0001

>  <partition>  (191)
BAT_EXTERNAL_CONFIRM

>  <method>  (191)
BA_seed193

>  <candidate>  (191)
primary

$$$$
train::NC(=O)c1cccnc1Oc1ccc(Cl)cc1Cl__gen0002
     RDKit          3D

 26 27  0  0  0  0  0  0  0  0999 V2000
   -2.4398   -2.1601   -0.6914 N   0  0  0  0  0  0  0  0  0  0  0  0
   -1.5562   -2.8600    0.0562 C   0  0  0  0  0  0  0  0  0  1  0  0
   -1.5919   -4.0747    0.1148 O   0  0  0  0  0  0  0  0  0  2  0  0
   -0.5570   -2.0722    0.8351 C   0  0  0  0  0  0  0  0  0  3  0  0
    0.1041   -2.7019    1.8709 C   0  0  0  0  0  0  0  0  0  4  0  0
   -0.1394   -3.7375    2.0535 H   0  0  0  0  0  0  0  0  0 23  0  0
    1.0547   -2.0335    2.6257 C   0  0  0  0  0  0  0  0  0  5  0  0
    1.5735   -2.5322    3.4273 H   0  0  0  0  0  0  0  0  0 22  0  0
    1.3037   -0.7073    2.3176 C   0  0  0  0  0  0  0  0  0  6  0  0
    2.0258   -0.1186    2.8560 H   0  0  0  0  0  0  0  0  0 21  0  0
    0.6805   -0.0794    1.3286 N   0  0  0  0  0  0  0  0  0  7  0  0
   -0.2034   -0.7182    0.6033 C   0  0  0  0  0  0  0  0  0  8  0  0
   -0.7957   -0.0125   -0.4141 O   0  0  0  0  0  0  0  0  0  9  0  0
   -0.1808    1.1484   -0.7957 C   0  0  0  0  0  0  0  0  0 10  0  0
   -0.8906    2.3357   -0.7733 C   0  0  0  0  0  0  0  0  0 11  0  0
   -1.8933    2.3220   -0.3729 H   0  0  0  0  0  0  0  0  0 20  0  0
   -0.3213    3.5180   -1.2099 C   0  0  0  0  0  0  0  0  0 12  0  0
   -0.8698    4.4414   -1.1852 H   0  0  0  0  0  0  0  0  0 19  0  0
    0.9751    3.4958   -1.6972 C   0  0  0  0  0  0  0  0  0 13  0  0
    1.7081    4.9581   -2.2573 Cl  0  0  0  0  0  0  0  0  0 18  0  0
    1.6975    2.3149   -1.7645 C   0  0  0  0  0  0  0  0  0 14  0  0
    2.7050    2.3060   -2.1613 H   0  0  0  0  0  0  0  0  0 17  0  0
    1.1165    1.1435   -1.3136 C   0  0  0  0  0  0  0  0  0 15  0  0
    1.9940   -0.3364   -1.4348 Cl  0  0  0  0  0  0  0  0  0 16  0  0
   -3.1096   -2.6754   -1.2371 H   0  0  0  0  0  0  0  0  0 24  0  0
   -2.3897   -1.1639   -0.7809 H   0  0  0  0  0  0  0  0  0 25  0  0
  1  2  1  0
  2  3  2  0
  2  4  1  0
  4  5  4  0
  5  6  1  0
  5  7  4  0
  7  8  1  0
  7  9  4  0
  9 10  1  0
  9 11  4  0
 11 12  4  0
 12 13  1  0
 13 14  1  0
 14 15  4  0
 15 16  1  0
 15 17  4  0
 17 18  1  0
 17 19  4  0
 19 20  1  0
 19 21  4  0
 21 22  1  0
 21 23  4  0
 23 24  1  0
  1 25  1  0
  1 26  1  0
 12  4  4  0
 23 14  4  0
M  END
>  <sample_id>  (192)
train::NC(=O)c1cccnc1Oc1ccc(Cl)cc1Cl__gen0002

>  <partition>  (192)
BAT_EXTERNAL_CONFIRM

>  <method>  (192)
BA_seed193

>  <candidate>  (192)
primary

$$$$
train::COc1ccc(-n2c(CCc3ccccc3)nnc2SCC(=O)c2ccccc2)cc1__gen0000
     RDKit          3D

 54 57  0  0  0  0  0  0  0  0999 V2000
   -4.8902   -0.6351    3.0679 C   0  0  0  0  0  0  0  0  0  0  0  0
   -4.3252   -1.5755    3.1163 H   0  0  0  0  0  0  0  0  0  1  0  0
   -4.0740    0.4641    3.3554 O   0  0  0  0  0  0  0  0  0  2  0  0
   -3.0308    0.7476    2.5309 C   0  0  0  0  0  0  0  0  0  3  0  0
   -2.6795   -0.0198    1.4171 C   0  0  0  0  0  0  0  0  0  4  0  0
   -3.2422   -0.8949    1.1366 H   0  0  0  0  0  0  0  0  0 51  0  0
   -1.5936    0.3471    0.6496 C   0  0  0  0  0  0  0  0  0  5  0  0
   -1.3139   -0.2450   -0.2071 H   0  0  0  0  0  0  0  0  0 50  0  0
   -0.8326    1.4604    0.9797 C   0  0  0  0  0  0  0  0  0  6  0  0
    0.2808    1.8206    0.2120 N   0  0  0  0  0  0  0  0  0 11  0  0
    0.3328    1.9818   -1.1579 C   0  0  0  0  0  0  0  0  0 12  0  0
   -1.0634    1.8449   -2.1657 S   0  0  0  0  0  0  0  0  0 33  0  0
   -0.3028    1.9981   -3.8060 C   0  0  0  0  0  0  0  0  0 34  0  0
   -0.2648    0.6199   -4.4567 C   0  0  0  0  0  0  0  0  0 35  0  0
   -1.0515    0.3610   -5.3465 O   0  0  0  0  0  0  0  0  0 36  0  0
    0.6695   -0.3725   -3.9180 C   0  0  0  0  0  0  0  0  0 37  0  0
    1.9327   -0.0418   -3.4020 C   0  0  0  0  0  0  0  0  0 38  0  0
    2.2402    0.9855   -3.3498 H   0  0  0  0  0  0  0  0  0 47  0  0
    2.7728   -1.0454   -2.9602 C   0  0  0  0  0  0  0  0  0 39  0  0
    3.7514   -0.7770   -2.5764 H   0  0  0  0  0  0  0  0  0 46  0  0
    2.3813   -2.3750   -3.0267 C   0  0  0  0  0  0  0  0  0 40  0  0
    3.0358   -3.1425   -2.6570 H   0  0  0  0  0  0  0  0  0 45  0  0
    1.1333   -2.7061   -3.5313 C   0  0  0  0  0  0  0  0  0 41  0  0
    0.8287   -3.7394   -3.5882 H   0  0  0  0  0  0  0  0  0 44  0  0
    0.2913   -1.7170   -3.9846 C   0  0  0  0  0  0  0  0  0 42  0  0
   -0.6695   -1.9646   -4.3903 H   0  0  0  0  0  0  0  0  0 43  0  0
    0.6810    2.4452   -3.6602 H   0  0  0  0  0  0  0  0  0 48  0  0
   -0.9619    2.6346   -4.3871 H   0  0  0  0  0  0  0  0  0 49  0  0
    1.5384    2.2712   -1.5387 N   0  0  0  0  0  0  0  0  0 13  0  0
    2.3324    2.2879   -0.4381 N   0  0  0  0  0  0  0  0  0 14  0  0
    1.5897    2.0247    0.5844 C   0  0  0  0  0  0  0  0  0 15  0  0
    2.1157    1.8310    1.9749 C   0  0  0  0  0  0  0  0  0 16  0  0
    1.3001    1.8865    2.6955 H   0  0  0  0  0  0  0  0  0 17  0  0
    2.8528    2.6001    2.1765 H   0  0  0  0  0  0  0  0  0 18  0  0
    2.7794    0.4406    2.0594 C   0  0  0  0  0  0  0  0  0 19  0  0
    1.7498   -0.6305    1.8257 C   0  0  0  0  0  0  0  0  0 20  0  0
    1.5489   -1.1693    0.5638 C   0  0  0  0  0  0  0  0  0 21  0  0
    2.1639   -0.8455   -0.2557 H   0  0  0  0  0  0  0  0  0 30  0  0
    0.5572   -2.1148    0.3489 C   0  0  0  0  0  0  0  0  0 22  0  0
    0.4103   -2.5216   -0.6358 H   0  0  0  0  0  0  0  0  0 29  0  0
   -0.2499   -2.5177    1.4014 C   0  0  0  0  0  0  0  0  0 23  0  0
   -1.0314   -3.2557    1.2407 H   0  0  0  0  0  0  0  0  0 28  0  0
   -0.0606   -1.9950    2.6704 C   0  0  0  0  0  0  0  0  0 24  0  0
   -0.6777   -2.3176    3.4934 H   0  0  0  0  0  0  0  0  0 27  0  0
    0.9349   -1.0585    2.8719 C   0  0  0  0  0  0  0  0  0 25  0  0
    1.0786   -0.6363    3.8657 H   0  0  0  0  0  0  0  0  0 26  0  0
    3.2198    0.3244    3.0431 H   0  0  0  0  0  0  0  0  0 31  0  0
    3.5485    0.3907    1.2906 H   0  0  0  0  0  0  0  0  0 32  0  0
   -1.1983    2.2403    2.0800 C   0  0  0  0  0  0  0  0  0  7  0  0
   -0.6483    3.1376    2.3117 H   0  0  0  0  0  0  0  0  0 10  0  0
   -2.2870    1.8818    2.8425 C   0  0  0  0  0  0  0  0  0  8  0  0
   -2.5775    2.4719    3.7022 H   0  0  0  0  0  0  0  0  0  9  0  0
   -5.3695   -0.5403    2.0879 H   0  0  0  0  0  0  0  0  0 52  0  0
   -5.6560   -0.6450    3.8438 H   0  0  0  0  0  0  0  0  0 53  0  0
  1  2  1  0
  1  3  1  0
  3  4  1  0
  4  5  4  0
  5  6  1  0
  5  7  4  0
  7  8  1  0
  7  9  4  0
  9 10  1  0
 10 11  4  0
 11 12  1  0
 12 13  1  0
 13 14  1  0
 14 15  2  0
 14 16  1  0
 16 17  4  0
 17 18  1  0
 17 19  4  0
 19 20  1  0
 19 21  4  0
 21 22  1  0
 21 23  4  0
 23 24  1  0
 23 25  4  0
 25 26  1  0
 13 27  1  0
 13 28  1  0
 11 29  4  0
 29 30  4  0
 30 31  4  0
 31 32  1  0
 32 33  1  0
 32 34  1  0
 32 35  1  0
 35 36  1  0
 36 37  4  0
 37 38  1  0
 37 39  4  0
 39 40  1  0
 39 41  4  0
 41 42  1  0
 41 43  4  0
 43 44  1  0
 43 45  4  0
 45 46  1  0
 35 47  1  0
 35 48  1  0
  9 49  4  0
 49 50  1  0
 49 51  4  0
 51 52  1  0
  1 53  1  0
  1 54  1  0
 51  4  4  0
 31 10  4  0
 45 36  4  0
 25 16  4  0
M  END
>  <sample_id>  (193)
train::COc1ccc(-n2c(CCc3ccccc3)nnc2SCC(=O)c2ccccc2)cc1__gen0000

>  <partition>  (193)
BAT_EXTERNAL_CONFIRM

>  <method>  (193)
BA_seed193

>  <candidate>  (193)
primary

$$$$
train::COc1ccc(-n2c(CCc3ccccc3)nnc2SCC(=O)c2ccccc2)cc1__gen0001
     RDKit          3D

 54 57  0  0  0  0  0  0  0  0999 V2000
    5.1833   -0.6768   -1.3145 C   0  0  0  0  0  0  0  0  0  0  0  0
    6.1067   -0.0962   -1.2516 H   0  0  0  0  0  0  0  0  0  1  0  0
    4.1387    0.2120   -1.0957 O   0  0  0  0  0  0  0  0  0  2  0  0
    2.8561   -0.2399   -1.1270 C   0  0  0  0  0  0  0  0  0  3  0  0
    1.8652    0.7142   -0.8920 C   0  0  0  0  0  0  0  0  0  4  0  0
    2.1671    1.7259   -0.7014 H   0  0  0  0  0  0  0  0  0 51  0  0
    0.5360    0.3540   -0.8718 C   0  0  0  0  0  0  0  0  0  5  0  0
   -0.2407    1.0838   -0.6663 H   0  0  0  0  0  0  0  0  0 50  0  0
    0.1887   -0.9674   -1.1003 C   0  0  0  0  0  0  0  0  0  6  0  0
   -1.1699   -1.3585   -1.0854 N   0  0  0  0  0  0  0  0  0 11  0  0
   -1.7771   -2.1896   -0.1899 C   0  0  0  0  0  0  0  0  0 12  0  0
   -0.9301   -3.0303    1.0653 S   0  0  0  0  0  0  0  0  0 33  0  0
   -1.5934   -2.0944    2.4974 C   0  0  0  0  0  0  0  0  0 34  0  0
   -0.9936   -0.6971    2.5740 C   0  0  0  0  0  0  0  0  0 35  0  0
   -1.7311    0.2717    2.6096 O   0  0  0  0  0  0  0  0  0 36  0  0
    0.4732   -0.5574    2.5804 C   0  0  0  0  0  0  0  0  0 37  0  0
    0.9975    0.6885    2.2054 C   0  0  0  0  0  0  0  0  0 38  0  0
    0.3069    1.4697    1.9157 H   0  0  0  0  0  0  0  0  0 47  0  0
    2.3672    0.8917    2.1853 C   0  0  0  0  0  0  0  0  0 39  0  0
    2.7535    1.8531    1.8947 H   0  0  0  0  0  0  0  0  0 46  0  0
    3.2257   -0.1242    2.5515 C   0  0  0  0  0  0  0  0  0 40  0  0
    4.2810    0.0310    2.5158 H   0  0  0  0  0  0  0  0  0 45  0  0
    2.7125   -1.3514    2.9346 C   0  0  0  0  0  0  0  0  0 41  0  0
    3.3878   -2.1452    3.2251 H   0  0  0  0  0  0  0  0  0 44  0  0
    1.3500   -1.5670    2.9517 C   0  0  0  0  0  0  0  0  0 42  0  0
    0.9814   -2.5316    3.2873 H   0  0  0  0  0  0  0  0  0 43  0  0
   -2.6696   -2.0379    2.3530 H   0  0  0  0  0  0  0  0  0 48  0  0
   -1.3671   -2.6686    3.3973 H   0  0  0  0  0  0  0  0  0 49  0  0
   -3.0453   -2.3182   -0.4474 N   0  0  0  0  0  0  0  0  0 13  0  0
   -3.3192   -1.5540   -1.5196 N   0  0  0  0  0  0  0  0  0 14  0  0
   -2.2107   -0.9750   -1.9058 C   0  0  0  0  0  0  0  0  0 15  0  0
   -2.1010   -0.0011   -3.0187 C   0  0  0  0  0  0  0  0  0 16  0  0
   -2.3516   -0.5134   -3.9563 H   0  0  0  0  0  0  0  0  0 17  0  0
   -1.0768    0.3571   -3.0963 H   0  0  0  0  0  0  0  0  0 18  0  0
   -3.0782    1.1617   -2.8187 C   0  0  0  0  0  0  0  0  0 19  0  0
   -2.8083    1.8376   -1.5007 C   0  0  0  0  0  0  0  0  0 20  0  0
   -1.8484    2.8343   -1.3934 C   0  0  0  0  0  0  0  0  0 21  0  0
   -1.3073    3.1393   -2.2721 H   0  0  0  0  0  0  0  0  0 30  0  0
   -1.5619    3.4057   -0.1658 C   0  0  0  0  0  0  0  0  0 22  0  0
   -0.8189    4.1850   -0.0948 H   0  0  0  0  0  0  0  0  0 29  0  0
   -2.2448    2.9945    0.9706 C   0  0  0  0  0  0  0  0  0 23  0  0
   -2.0144    3.4454    1.9256 H   0  0  0  0  0  0  0  0  0 28  0  0
   -3.1979    1.9994    0.8736 C   0  0  0  0  0  0  0  0  0 24  0  0
   -3.7286    1.6694    1.7571 H   0  0  0  0  0  0  0  0  0 27  0  0
   -3.4868    1.4360   -0.3507 C   0  0  0  0  0  0  0  0  0 25  0  0
   -4.2440    0.6630   -0.4275 H   0  0  0  0  0  0  0  0  0 26  0  0
   -2.9678    1.8768   -3.6217 H   0  0  0  0  0  0  0  0  0 31  0  0
   -4.0939    0.7781   -2.8196 H   0  0  0  0  0  0  0  0  0 32  0  0
    1.1676   -1.9246   -1.3289 C   0  0  0  0  0  0  0  0  0  7  0  0
    0.8726   -2.9592   -1.5022 H   0  0  0  0  0  0  0  0  0 10  0  0
    2.4989   -1.5634   -1.3405 C   0  0  0  0  0  0  0  0  0  8  0  0
    3.2352   -2.3249   -1.5263 H   0  0  0  0  0  0  0  0  0  9  0  0
    5.2091   -1.4684   -0.5540 H   0  0  0  0  0  0  0  0  0 52  0  0
    5.1168   -1.1433   -2.3145 H   0  0  0  0  0  0  0  0  0 53  0  0
  1  2  1  0
  1  3  1  0
  3  4  1  0
  4  5  4  0
  5  6  1  0
  5  7  4  0
  7  8  1  0
  7  9  4  0
  9 10  1  0
 10 11  4  0
 11 12  1  0
 12 13  1  0
 13 14  1  0
 14 15  2  0
 14 16  1  0
 16 17  4  0
 17 18  1  0
 17 19  4  0
 19 20  1  0
 19 21  4  0
 21 22  1  0
 21 23  4  0
 23 24  1  0
 23 25  4  0
 25 26  1  0
 13 27  1  0
 13 28  1  0
 11 29  4  0
 29 30  4  0
 30 31  4  0
 31 32  1  0
 32 33  1  0
 32 34  1  0
 32 35  1  0
 35 36  1  0
 36 37  4  0
 37 38  1  0
 37 39  4  0
 39 40  1  0
 39 41  4  0
 41 42  1  0
 41 43  4  0
 43 44  1  0
 43 45  4  0
 45 46  1  0
 35 47  1  0
 35 48  1  0
  9 49  4  0
 49 50  1  0
 49 51  4  0
 51 52  1  0
  1 53  1  0
  1 54  1  0
 51  4  4  0
 31 10  4  0
 45 36  4  0
 25 16  4  0
M  END
>  <sample_id>  (194)
train::COc1ccc(-n2c(CCc3ccccc3)nnc2SCC(=O)c2ccccc2)cc1__gen0001

>  <partition>  (194)
BAT_EXTERNAL_CONFIRM

>  <method>  (194)
BA_seed193

>  <candidate>  (194)
primary

$$$$
train::COc1ccc(-n2c(CCc3ccccc3)nnc2SCC(=O)c2ccccc2)cc1__gen0002
     RDKit          3D

 54 57  0  0  0  0  0  0  0  0999 V2000
   -1.1509    5.3069    2.4295 C   0  0  0  0  0  0  0  0  0  0  0  0
   -2.0124    5.8279    2.8499 H   0  0  0  0  0  0  0  0  0  1  0  0
   -1.6725    4.2200    1.7053 O   0  0  0  0  0  0  0  0  0  2  0  0
   -0.8092    3.3715    1.0781 C   0  0  0  0  0  0  0  0  0  3  0  0
   -1.3888    2.2974    0.4093 C   0  0  0  0  0  0  0  0  0  4  0  0
   -2.4707    2.2178    0.3886 H   0  0  0  0  0  0  0  0  0 51  0  0
   -0.6129    1.3595   -0.2352 C   0  0  0  0  0  0  0  0  0  5  0  0
   -1.0699    0.5292   -0.7461 H   0  0  0  0  0  0  0  0  0 50  0  0
    0.7708    1.4814   -0.2074 C   0  0  0  0  0  0  0  0  0  6  0  0
    1.5589    0.4972   -0.8298 N   0  0  0  0  0  0  0  0  0 11  0  0
    1.3599   -0.0515   -2.0735 C   0  0  0  0  0  0  0  0  0 12  0  0
    0.1775    0.5009   -3.2300 S   0  0  0  0  0  0  0  0  0 33  0  0
    0.3950   -0.8815   -4.3983 C   0  0  0  0  0  0  0  0  0 34  0  0
    0.2768   -2.2673   -3.7617 C   0  0  0  0  0  0  0  0  0 35  0  0
    1.0950   -3.1144   -4.0492 O   0  0  0  0  0  0  0  0  0 36  0  0
   -0.8332   -2.5422   -2.8361 C   0  0  0  0  0  0  0  0  0 37  0  0
   -0.6534   -3.5980   -1.9508 C   0  0  0  0  0  0  0  0  0 38  0  0
    0.2740   -4.1447   -1.9870 H   0  0  0  0  0  0  0  0  0 47  0  0
   -1.6408   -3.9375   -1.0463 C   0  0  0  0  0  0  0  0  0 39  0  0
   -1.4957   -4.7666   -0.3743 H   0  0  0  0  0  0  0  0  0 46  0  0
   -2.8272   -3.2265   -1.0273 C   0  0  0  0  0  0  0  0  0 40  0  0
   -3.6146   -3.4798   -0.3376 H   0  0  0  0  0  0  0  0  0 45  0  0
   -3.0127   -2.1678   -1.8994 C   0  0  0  0  0  0  0  0  0 41  0  0
   -3.9256   -1.5929   -1.8785 H   0  0  0  0  0  0  0  0  0 44  0  0
   -2.0257   -1.8159   -2.7867 C   0  0  0  0  0  0  0  0  0 42  0  0
   -2.1721   -0.9947   -3.4657 H   0  0  0  0  0  0  0  0  0 43  0  0
    1.3772   -0.7796   -4.8573 H   0  0  0  0  0  0  0  0  0 48  0  0
   -0.3779   -0.7545   -5.1596 H   0  0  0  0  0  0  0  0  0 49  0  0
    2.2596   -0.9539   -2.3361 N   0  0  0  0  0  0  0  0  0 13  0  0
    3.0459   -1.0725   -1.2473 N   0  0  0  0  0  0  0  0  0 14  0  0
    2.6439   -0.2314   -0.3532 C   0  0  0  0  0  0  0  0  0 15  0  0
    3.2248   -0.1400    1.0030 C   0  0  0  0  0  0  0  0  0 16  0  0
    4.2936   -0.3477    0.9164 H   0  0  0  0  0  0  0  0  0 17  0  0
    3.0855    0.8667    1.4095 H   0  0  0  0  0  0  0  0  0 18  0  0
    2.5737   -1.1671    1.9459 C   0  0  0  0  0  0  0  0  0 19  0  0
    1.1266   -0.8518    2.1618 C   0  0  0  0  0  0  0  0  0 20  0  0
    0.1473   -1.4461    1.3741 C   0  0  0  0  0  0  0  0  0 21  0  0
    0.4273   -2.1684    0.6269 H   0  0  0  0  0  0  0  0  0 30  0  0
   -1.1861   -1.1212    1.5565 C   0  0  0  0  0  0  0  0  0 22  0  0
   -1.9384   -1.6051    0.9480 H   0  0  0  0  0  0  0  0  0 29  0  0
   -1.5587   -0.1972    2.5183 C   0  0  0  0  0  0  0  0  0 23  0  0
   -2.5977    0.0678    2.6419 H   0  0  0  0  0  0  0  0  0 28  0  0
   -0.5818    0.4114    3.2903 C   0  0  0  0  0  0  0  0  0 24  0  0
   -0.8650    1.1386    4.0429 H   0  0  0  0  0  0  0  0  0 27  0  0
    0.7531    0.0870    3.1130 C   0  0  0  0  0  0  0  0  0 25  0  0
    1.5024    0.5518    3.7387 H   0  0  0  0  0  0  0  0  0 26  0  0
    3.1133   -1.1634    2.8888 H   0  0  0  0  0  0  0  0  0 31  0  0
    2.6794   -2.1526    1.4870 H   0  0  0  0  0  0  0  0  0 32  0  0
    1.3589    2.5613    0.4399 C   0  0  0  0  0  0  0  0  0  7  0  0
    2.4239    2.6836    0.4192 H   0  0  0  0  0  0  0  0  0 10  0  0
    0.5817    3.4956    1.0845 C   0  0  0  0  0  0  0  0  0  8  0  0
    1.0596    4.3215    1.5843 H   0  0  0  0  0  0  0  0  0  9  0  0
   -0.5856    5.9819    1.7779 H   0  0  0  0  0  0  0  0  0 52  0  0
   -0.5059    4.9569    3.2449 H   0  0  0  0  0  0  0  0  0 53  0  0
  1  2  1  0
  1  3  1  0
  3  4  1  0
  4  5  4  0
  5  6  1  0
  5  7  4  0
  7  8  1  0
  7  9  4  0
  9 10  1  0
 10 11  4  0
 11 12  1  0
 12 13  1  0
 13 14  1  0
 14 15  2  0
 14 16  1  0
 16 17  4  0
 17 18  1  0
 17 19  4  0
 19 20  1  0
 19 21  4  0
 21 22  1  0
 21 23  4  0
 23 24  1  0
 23 25  4  0
 25 26  1  0
 13 27  1  0
 13 28  1  0
 11 29  4  0
 29 30  4  0
 30 31  4  0
 31 32  1  0
 32 33  1  0
 32 34  1  0
 32 35  1  0
 35 36  1  0
 36 37  4  0
 37 38  1  0
 37 39  4  0
 39 40  1  0
 39 41  4  0
 41 42  1  0
 41 43  4  0
 43 44  1  0
 43 45  4  0
 45 46  1  0
 35 47  1  0
 35 48  1  0
  9 49  4  0
 49 50  1  0
 49 51  4  0
 51 52  1  0
  1 53  1  0
  1 54  1  0
 51  4  4  0
 31 10  4  0
 45 36  4  0
 25 16  4  0
M  END
>  <sample_id>  (195)
train::COc1ccc(-n2c(CCc3ccccc3)nnc2SCC(=O)c2ccccc2)cc1__gen0002

>  <partition>  (195)
BAT_EXTERNAL_CONFIRM

>  <method>  (195)
BA_seed193

>  <candidate>  (195)
primary

$$$$
train::COc1ccc(S(=O)(=O)NCc2ccc(C(=O)NCCCN3CC(C)CC(C)C3)cc2)cc1__gen0000
     RDKit          3D

 68 70  0  0  0  0  0  0  0  0999 V2000
    4.0707    1.2497   -3.8527 C   0  0  0  0  0  0  0  0  0  0  0  0
    4.6503    0.9751   -4.7208 H   0  0  0  0  0  0  0  0  0  1  0  0
    4.9859    1.2705   -2.7574 O   0  0  0  0  0  0  0  0  0  2  0  0
    4.5309    1.5109   -1.5271 C   0  0  0  0  0  0  0  0  0  3  0  0
    5.4494    1.4103   -0.4721 C   0  0  0  0  0  0  0  0  0  4  0  0
    6.4761    1.1845   -0.7184 H   0  0  0  0  0  0  0  0  0 65  0  0
    5.0513    1.5712    0.8403 C   0  0  0  0  0  0  0  0  0  5  0  0
    5.7543    1.4890    1.6563 H   0  0  0  0  0  0  0  0  0 64  0  0
    3.7326    1.8608    1.1065 C   0  0  0  0  0  0  0  0  0  6  0  0
    3.2024    1.9676    2.8060 S   0  0  2  0  0  6  0  0  0 11  0  0
    1.7728    2.1820    2.8306 O   0  0  0  0  0  0  0  0  0 12  0  0
    4.0484    2.8813    3.5166 O   0  0  0  0  0  0  0  0  0 13  0  0
    3.5669    0.4369    3.4161 N   0  0  0  0  0  0  0  0  0 14  0  0
    4.0311    0.5276    4.3138 H   0  0  0  0  0  0  0  0  0 15  0  0
    2.4773   -0.5352    3.4485 C   0  0  0  0  0  0  0  0  0 16  0  0
    1.9588   -0.7292    2.0559 C   0  0  0  0  0  0  0  0  0 17  0  0
    0.5939   -0.6846    1.7891 C   0  0  0  0  0  0  0  0  0 18  0  0
   -0.1018   -0.6452    2.6061 H   0  0  0  0  0  0  0  0  0 61  0  0
    0.1374   -0.7188    0.4931 C   0  0  0  0  0  0  0  0  0 19  0  0
   -0.9327   -0.7109    0.2980 H   0  0  0  0  0  0  0  0  0 60  0  0
    1.0254   -0.7674   -0.5696 C   0  0  0  0  0  0  0  0  0 20  0  0
    0.5964   -0.6365   -2.0094 C   0  0  0  0  0  0  0  0  0 25  0  0
    1.2573   -1.0533   -2.9307 O   0  0  0  0  0  0  0  0  0 26  0  0
   -0.5524    0.0588   -2.1624 N   0  0  0  0  0  0  0  0  0 27  0  0
   -1.2466    0.1829   -3.4100 C   0  0  0  0  0  0  0  0  0 28  0  0
   -2.5988   -0.5334   -3.3680 C   0  0  0  0  0  0  0  0  0 29  0  0
   -2.4363   -1.6017   -3.1898 H   0  0  0  0  0  0  0  0  0 30  0  0
   -3.1005   -0.4184   -4.3255 H   0  0  0  0  0  0  0  0  0 31  0  0
   -3.5470    0.0308   -2.2831 C   0  0  0  0  0  0  0  0  0 32  0  0
   -3.1330   -0.3166   -0.9250 N   0  0  0  0  0  0  0  0  0 33  0  0
   -3.6106    0.6454    0.0723 C   0  0  0  0  0  0  0  0  0 34  0  0
   -3.2113    1.6284   -0.2044 H   0  0  0  0  0  0  0  0  0 53  0  0
   -4.7116    0.6715    0.1034 H   0  0  0  0  0  0  0  0  0 54  0  0
   -3.0715    0.2863    1.4588 C   0  0  1  0  0  0  0  0  0 35  0  0
   -3.5023    1.3371    2.4853 C   0  0  0  0  0  0  0  0  0 36  0  0
   -3.0861    2.2997    2.2286 H   0  0  0  0  0  0  0  0  0 37  0  0
   -4.5877    1.4138    2.5315 H   0  0  0  0  0  0  0  0  0 38  0  0
   -3.1553    1.0643    3.4744 H   0  0  0  0  0  0  0  0  0 39  0  0
   -1.9914    0.2397    1.4562 H   0  0  0  0  0  0  0  0  0 52  0  0
   -3.6093   -1.0964    1.8362 C   0  0  0  0  0  0  0  0  0 40  0  0
   -3.1933   -1.3999    2.7968 H   0  0  0  0  0  0  0  0  0 50  0  0
   -4.6891   -1.0598    1.8992 H   0  0  0  0  0  0  0  0  0 51  0  0
   -3.1550   -2.1000    0.7849 C   0  0  1  0  0  0  0  0  0 41  0  0
   -3.7033   -3.4809    1.1063 C   0  0  0  0  0  0  0  0  0 42  0  0
   -4.7995   -3.4627    1.1160 H   0  0  0  0  0  0  0  0  0 43  0  0
   -3.3797   -4.2200    0.3668 H   0  0  0  0  0  0  0  0  0 44  0  0
   -3.3599   -3.8122    2.0782 H   0  0  0  0  0  0  0  0  0 45  0  0
   -2.0464   -2.1315    0.7779 H   0  0  0  0  0  0  0  0  0 49  0  0
   -3.6277   -1.6537   -0.5937 C   0  0  0  0  0  0  0  0  0 46  0  0
   -4.7378   -1.6883   -0.6039 H   0  0  0  0  0  0  0  0  0 47  0  0
   -3.2357   -2.3418   -1.3484 H   0  0  0  0  0  0  0  0  0 48  0  0
   -3.5454    1.1245   -2.3643 H   0  0  0  0  0  0  0  0  0 55  0  0
   -4.5724   -0.3267   -2.4631 H   0  0  0  0  0  0  0  0  0 56  0  0
   -0.5905   -0.2617   -4.1757 H   0  0  0  0  0  0  0  0  0 57  0  0
   -1.3840    1.2425   -3.6599 H   0  0  0  0  0  0  0  0  0 58  0  0
   -1.0779    0.3501   -1.3385 H   0  0  0  0  0  0  0  0  0 59  0  0
    2.3808   -0.9300   -0.2991 C   0  0  0  0  0  0  0  0  0 21  0  0
    3.0651   -1.0336   -1.1250 H   0  0  0  0  0  0  0  0  0 24  0  0
    2.8370   -0.9099    1.0034 C   0  0  0  0  0  0  0  0  0 22  0  0
    3.8943   -1.0083    1.2183 H   0  0  0  0  0  0  0  0  0 23  0  0
    2.8673   -1.4785    3.8565 H   0  0  0  0  0  0  0  0  0 62  0  0
    1.6566   -0.1789    4.0932 H   0  0  0  0  0  0  0  0  0 63  0  0
    2.8163    2.0162    0.0841 C   0  0  0  0  0  0  0  0  0  7  0  0
    1.8016    2.2736    0.3338 H   0  0  0  0  0  0  0  0  0 10  0  0
    3.2057    1.8433   -1.2298 C   0  0  0  0  0  0  0  0  0  8  0  0
    2.4772    1.9537   -2.0200 H   0  0  0  0  0  0  0  0  0  9  0  0
    3.2822    0.5108   -3.7003 H   0  0  0  0  0  0  0  0  0 66  0  0
    3.6300    2.2350   -3.9907 H   0  0  0  0  0  0  0  0  0 67  0  0
  1  2  1  0
  1  3  1  0
  3  4  1  0
  4  5  4  0
  5  6  1  0
  5  7  4  0
  7  8  1  0
  7  9  4  0
  9 10  1  0
 10 11  2  0
 10 12  2  0
 10 13  1  1
 13 14  1  0
 13 15  1  0
 15 16  1  0
 16 17  4  0
 17 18  1  0
 17 19  4  0
 19 20  1  0
 19 21  4  0
 21 22  1  0
 22 23  2  0
 22 24  1  0
 24 25  1  0
 25 26  1  0
 26 27  1  0
 26 28  1  0
 26 29  1  0
 29 30  1  0
 30 31  1  0
 31 32  1  0
 31 33  1  0
 31 34  1  0
 34 35  1  0
 35 36  1  0
 35 37  1  0
 35 38  1  0
 34 39  1  1
 34 40  1  0
 40 41  1  0
 40 42  1  0
 40 43  1  0
 43 44  1  0
 44 45  1  0
 44 46  1  0
 44 47  1  0
 43 48  1  1
 43 49  1  0
 49 50  1  0
 49 51  1  0
 29 52  1  0
 29 53  1  0
 25 54  1  0
 25 55  1  0
 24 56  1  0
 21 57  4  0
 57 58  1  0
 57 59  4  0
 59 60  1  0
 15 61  1  0
 15 62  1  0
  9 63  4  0
 63 64  1  0
 63 65  4  0
 65 66  1  0
  1 67  1  0
  1 68  1  0
 65  4  4  0
 59 16  4  0
 49 30  1  0
M  END
>  <sample_id>  (196)
train::COc1ccc(S(=O)(=O)NCc2ccc(C(=O)NCCCN3CC(C)CC(C)C3)cc2)cc1__gen0000

>  <partition>  (196)
BAT_EXTERNAL_CONFIRM

>  <method>  (196)
BA_seed193

>  <candidate>  (196)
primary

$$$$
train::COc1ccc(S(=O)(=O)NCc2ccc(C(=O)NCCCN3CC(C)CC(C)C3)cc2)cc1__gen0001
     RDKit          3D

 68 70  0  0  0  0  0  0  0  0999 V2000
   -3.0100   -1.0975    1.9627 C   0  0  0  0  0  0  0  0  0  0  0  0
   -2.0443   -0.9948    1.4722 H   0  0  0  0  0  0  0  0  0  1  0  0
   -3.8988   -1.8444    1.1702 O   0  0  0  0  0  0  0  0  0  2  0  0
   -4.1910   -1.4112   -0.0699 C   0  0  0  0  0  0  0  0  0  3  0  0
   -3.7251   -0.2140   -0.6275 C   0  0  0  0  0  0  0  0  0  4  0  0
   -3.1102    0.4589   -0.0587 H   0  0  0  0  0  0  0  0  0 65  0  0
   -4.1017    0.1258   -1.9204 C   0  0  0  0  0  0  0  0  0  5  0  0
   -3.7709    1.0570   -2.3534 H   0  0  0  0  0  0  0  0  0 64  0  0
   -4.8998   -0.7224   -2.6580 C   0  0  0  0  0  0  0  0  0  6  0  0
   -5.3674   -0.3023   -4.3276 S   0  0  2  0  0  6  0  0  0 11  0  0
   -4.7466    0.9199   -4.7389 O   0  0  0  0  0  0  0  0  0 12  0  0
   -6.7944   -0.4338   -4.4327 O   0  0  0  0  0  0  0  0  0 13  0  0
   -4.7300   -1.5178   -5.2887 N   0  0  0  0  0  0  0  0  0 14  0  0
   -4.9776   -2.4305   -4.9386 H   0  0  0  0  0  0  0  0  0 15  0  0
   -3.3470   -1.3771   -5.6873 C   0  0  0  0  0  0  0  0  0 16  0  0
   -2.4096   -1.2773   -4.5028 C   0  0  0  0  0  0  0  0  0 17  0  0
   -1.7094   -0.0956   -4.2672 C   0  0  0  0  0  0  0  0  0 18  0  0
   -1.8135    0.7224   -4.9555 H   0  0  0  0  0  0  0  0  0 61  0  0
   -0.9367    0.0484   -3.1363 C   0  0  0  0  0  0  0  0  0 19  0  0
   -0.4273    0.9901   -2.9576 H   0  0  0  0  0  0  0  0  0 60  0  0
   -0.8001   -1.0108   -2.2290 C   0  0  0  0  0  0  0  0  0 20  0  0
   -0.0627   -0.8675   -0.9681 C   0  0  0  0  0  0  0  0  0 25  0  0
   -0.4709   -1.3573    0.0774 O   0  0  0  0  0  0  0  0  0 26  0  0
    1.1005   -0.1782   -1.0579 N   0  0  0  0  0  0  0  0  0 27  0  0
    1.9416    0.1085    0.0830 C   0  0  0  0  0  0  0  0  0 28  0  0
    3.1029   -0.8901    0.2295 C   0  0  0  0  0  0  0  0  0 29  0  0
    2.7517   -1.7580    0.7773 H   0  0  0  0  0  0  0  0  0 30  0  0
    3.4414   -1.2300   -0.7361 H   0  0  0  0  0  0  0  0  0 31  0  0
    4.2891   -0.2537    0.9754 C   0  0  0  0  0  0  0  0  0 32  0  0
    3.8442    0.7883    1.8688 N   0  0  0  0  0  0  0  0  0 33  0  0
    3.1587    0.2832    3.0478 C   0  0  0  0  0  0  0  0  0 34  0  0
    2.3585   -0.3989    2.7354 H   0  0  0  0  0  0  0  0  0 53  0  0
    3.8558   -0.2910    3.6904 H   0  0  0  0  0  0  0  0  0 54  0  0
    2.5515    1.4174    3.8542 C   0  0  1  0  0  0  0  0  0 35  0  0
    1.7667    0.8637    5.0745 C   0  0  0  0  0  0  0  0  0 36  0  0
    1.1398    0.0303    4.7626 H   0  0  0  0  0  0  0  0  0 37  0  0
    1.1472    1.6385    5.4891 H   0  0  0  0  0  0  0  0  0 38  0  0
    2.4513    0.5118    5.8247 H   0  0  0  0  0  0  0  0  0 39  0  0
    1.8308    1.9185    3.1957 H   0  0  0  0  0  0  0  0  0 52  0  0
    3.6473    2.4045    4.2779 C   0  0  0  0  0  0  0  0  0 40  0  0
    3.1810    3.2409    4.7943 H   0  0  0  0  0  0  0  0  0 50  0  0
    4.3284    1.9165    4.9549 H   0  0  0  0  0  0  0  0  0 51  0  0
    4.3980    2.8699    3.0430 C   0  0  1  0  0  0  0  0  0 41  0  0
    5.5450    3.8152    3.4146 C   0  0  0  0  0  0  0  0  0 42  0  0
    6.0463    4.1907    2.5358 H   0  0  0  0  0  0  0  0  0 43  0  0
    6.2751    3.2935    4.0373 H   0  0  0  0  0  0  0  0  0 44  0  0
    5.1642    4.6641    3.9766 H   0  0  0  0  0  0  0  0  0 45  0  0
    3.7048    3.3911    2.3864 H   0  0  0  0  0  0  0  0  0 49  0  0
    4.9408    1.6642    2.2752 C   0  0  0  0  0  0  0  0  0 46  0  0
    5.6588    1.1140    2.8900 H   0  0  0  0  0  0  0  0  0 47  0  0
    5.4345    2.0179    1.3600 H   0  0  0  0  0  0  0  0  0 48  0  0
    4.9700    0.2022    0.2657 H   0  0  0  0  0  0  0  0  0 55  0  0
    4.8302   -1.0505    1.5176 H   0  0  0  0  0  0  0  0  0 56  0  0
    2.3268    1.1361   -0.0107 H   0  0  0  0  0  0  0  0  0 57  0  0
    1.2960    0.0676    0.9572 H   0  0  0  0  0  0  0  0  0 58  0  0
    1.3987    0.1602   -1.9529 H   0  0  0  0  0  0  0  0  0 59  0  0
   -1.5158   -2.1920   -2.4767 C   0  0  0  0  0  0  0  0  0 21  0  0
   -1.4406   -2.9931   -1.7529 H   0  0  0  0  0  0  0  0  0 24  0  0
   -2.2684   -2.3307   -3.6127 C   0  0  0  0  0  0  0  0  0 22  0  0
   -2.8089   -3.2494   -3.7829 H   0  0  0  0  0  0  0  0  0 23  0  0
   -3.2882   -0.4500   -6.2573 H   0  0  0  0  0  0  0  0  0 62  0  0
   -3.0673   -2.2186   -6.3364 H   0  0  0  0  0  0  0  0  0 63  0  0
   -5.3900   -1.8891   -2.0959 C   0  0  0  0  0  0  0  0  0  7  0  0
   -6.0507   -2.5132   -2.6854 H   0  0  0  0  0  0  0  0  0 10  0  0
   -5.0322   -2.2406   -0.8146 C   0  0  0  0  0  0  0  0  0  8  0  0
   -5.3758   -3.1474   -0.3739 H   0  0  0  0  0  0  0  0  0  9  0  0
   -2.8633   -1.6824    2.8793 H   0  0  0  0  0  0  0  0  0 66  0  0
   -3.4313   -0.1204    2.2077 H   0  0  0  0  0  0  0  0  0 67  0  0
  1  2  1  0
  1  3  1  0
  3  4  1  0
  4  5  4  0
  5  6  1  0
  5  7  4  0
  7  8  1  0
  7  9  4  0
  9 10  1  0
 10 11  2  0
 10 12  2  0
 10 13  1  6
 13 14  1  0
 13 15  1  0
 15 16  1  0
 16 17  4  0
 17 18  1  0
 17 19  4  0
 19 20  1  0
 19 21  4  0
 21 22  1  0
 22 23  2  0
 22 24  1  0
 24 25  1  0
 25 26  1  0
 26 27  1  0
 26 28  1  0
 26 29  1  0
 29 30  1  0
 30 31  1  0
 31 32  1  0
 31 33  1  0
 31 34  1  0
 34 35  1  0
 35 36  1  0
 35 37  1  0
 35 38  1  0
 34 39  1  1
 34 40  1  0
 40 41  1  0
 40 42  1  0
 40 43  1  0
 43 44  1  0
 44 45  1  0
 44 46  1  0
 44 47  1  0
 43 48  1  1
 43 49  1  0
 49 50  1  0
 49 51  1  0
 29 52  1  0
 29 53  1  0
 25 54  1  0
 25 55  1  0
 24 56  1  0
 21 57  4  0
 57 58  1  0
 57 59  4  0
 59 60  1  0
 15 61  1  0
 15 62  1  0
  9 63  4  0
 63 64  1  0
 63 65  4  0
 65 66  1  0
  1 67  1  0
  1 68  1  0
 65  4  4  0
 59 16  4  0
 49 30  1  0
M  END
>  <sample_id>  (197)
train::COc1ccc(S(=O)(=O)NCc2ccc(C(=O)NCCCN3CC(C)CC(C)C3)cc2)cc1__gen0001

>  <partition>  (197)
BAT_EXTERNAL_CONFIRM

>  <method>  (197)
BA_seed193

>  <candidate>  (197)
primary

$$$$
train::COc1ccc(S(=O)(=O)NCc2ccc(C(=O)NCCCN3CC(C)CC(C)C3)cc2)cc1__gen0002
     RDKit          3D

 68 70  0  0  0  0  0  0  0  0999 V2000
   -2.3865   -3.4665    2.4659 C   0  0  0  0  0  0  0  0  0  0  0  0
   -2.8548   -3.4950    1.4737 H   0  0  0  0  0  0  0  0  0  1  0  0
   -1.3830   -2.4969    2.5187 O   0  0  0  0  0  0  0  0  0  2  0  0
   -0.3207   -2.5675    1.6988 C   0  0  0  0  0  0  0  0  0  3  0  0
    0.4605   -1.4184    1.5812 C   0  0  0  0  0  0  0  0  0  4  0  0
    0.1748   -0.5728    2.1829 H   0  0  0  0  0  0  0  0  0 65  0  0
    1.5518   -1.4022    0.7379 C   0  0  0  0  0  0  0  0  0  5  0  0
    2.1692   -0.5316    0.6209 H   0  0  0  0  0  0  0  0  0 64  0  0
    1.8672   -2.5242    0.0067 C   0  0  0  0  0  0  0  0  0  6  0  0
    3.2994   -2.4572   -1.0598 S   0  0  2  0  0  6  0  0  0 11  0  0
    4.3701   -3.1991   -0.4607 O   0  0  0  0  0  0  0  0  0 12  0  0
    3.5438   -1.0916   -1.4299 O   0  0  0  0  0  0  0  0  0 13  0  0
    2.8249   -3.3624   -2.4049 N   0  0  0  0  0  0  0  0  0 14  0  0
    3.6407   -3.8584   -2.7500 H   0  0  0  0  0  0  0  0  0 15  0  0
    2.1438   -2.6013   -3.4454 C   0  0  0  0  0  0  0  0  0 16  0  0
    0.8410   -2.1404   -2.8644 C   0  0  0  0  0  0  0  0  0 17  0  0
   -0.0635   -3.0912   -2.4114 C   0  0  0  0  0  0  0  0  0 18  0  0
    0.1314   -4.1313   -2.6323 H   0  0  0  0  0  0  0  0  0 61  0  0
   -1.1987   -2.7076   -1.7221 C   0  0  0  0  0  0  0  0  0 19  0  0
   -1.8983   -3.4453   -1.3525 H   0  0  0  0  0  0  0  0  0 60  0  0
   -1.4042   -1.3755   -1.4035 C   0  0  0  0  0  0  0  0  0 20  0  0
   -2.5434   -1.0568   -0.4905 C   0  0  0  0  0  0  0  0  0 25  0  0
   -3.5183   -1.7743   -0.3874 O   0  0  0  0  0  0  0  0  0 26  0  0
   -2.3355    0.0408    0.2840 N   0  0  0  0  0  0  0  0  0 27  0  0
   -3.3097    0.5269    1.2265 C   0  0  0  0  0  0  0  0  0 28  0  0
   -3.3903    2.0479    1.1717 C   0  0  0  0  0  0  0  0  0 29  0  0
   -3.5322    2.3872    0.1400 H   0  0  0  0  0  0  0  0  0 30  0  0
   -4.2449    2.3749    1.7561 H   0  0  0  0  0  0  0  0  0 31  0  0
   -2.1537    2.7247    1.7619 C   0  0  0  0  0  0  0  0  0 32  0  0
   -0.8959    2.4387    1.0386 N   0  0  0  0  0  0  0  0  0 33  0  0
    0.2299    2.6662    1.9399 C   0  0  0  0  0  0  0  0  0 34  0  0
    0.1130    1.9627    2.7795 H   0  0  0  0  0  0  0  0  0 53  0  0
    0.2211    3.6935    2.3253 H   0  0  0  0  0  0  0  0  0 54  0  0
    1.5843    2.4185    1.2583 C   0  0  2  0  0  0  0  0  0 35  0  0
    2.6793    2.6592    2.2535 C   0  0  0  0  0  0  0  0  0 36  0  0
    3.6565    2.5299    1.7775 H   0  0  0  0  0  0  0  0  0 37  0  0
    2.6300    3.6680    2.6457 H   0  0  0  0  0  0  0  0  0 38  0  0
    2.6125    1.9545    3.0681 H   0  0  0  0  0  0  0  0  0 39  0  0
    1.6156    1.3945    0.8782 H   0  0  0  0  0  0  0  0  0 52  0  0
    1.6775    3.3051    0.0145 C   0  0  0  0  0  0  0  0  0 40  0  0
    2.6043    3.1117   -0.5234 H   0  0  0  0  0  0  0  0  0 50  0  0
    1.6621    4.3554    0.3012 H   0  0  0  0  0  0  0  0  0 51  0  0
    0.5092    3.0026   -0.9229 C   0  0  2  0  0  0  0  0  0 41  0  0
    0.5865    3.8215   -2.2028 C   0  0  0  0  0  0  0  0  0 42  0  0
   -0.2527    3.5819   -2.8615 H   0  0  0  0  0  0  0  0  0 43  0  0
    0.5321    4.8838   -1.9763 H   0  0  0  0  0  0  0  0  0 44  0  0
    1.5107    3.5919   -2.7347 H   0  0  0  0  0  0  0  0  0 45  0  0
    0.5546    1.9353   -1.1563 H   0  0  0  0  0  0  0  0  0 49  0  0
   -0.8020    3.2555   -0.1712 C   0  0  0  0  0  0  0  0  0 46  0  0
   -1.6411    3.0001   -0.8358 H   0  0  0  0  0  0  0  0  0 47  0  0
   -0.8859    4.3170    0.0944 H   0  0  0  0  0  0  0  0  0 48  0  0
   -2.0289    2.3826    2.7840 H   0  0  0  0  0  0  0  0  0 55  0  0
   -2.3162    3.8117    1.8039 H   0  0  0  0  0  0  0  0  0 56  0  0
   -4.2772    0.0790    0.9573 H   0  0  0  0  0  0  0  0  0 57  0  0
   -3.0467    0.1985    2.2304 H   0  0  0  0  0  0  0  0  0 58  0  0
   -1.4498    0.5261    0.2645 H   0  0  0  0  0  0  0  0  0 59  0  0
   -0.5515   -0.4170   -1.9426 C   0  0  0  0  0  0  0  0  0 21  0  0
   -0.7707    0.6363   -1.8055 H   0  0  0  0  0  0  0  0  0 24  0  0
    0.5658   -0.7966   -2.6562 C   0  0  0  0  0  0  0  0  0 22  0  0
    1.2408   -0.0500   -3.0522 H   0  0  0  0  0  0  0  0  0 23  0  0
    2.7538   -1.7355   -3.7519 H   0  0  0  0  0  0  0  0  0 62  0  0
    1.9887   -3.2557   -4.3075 H   0  0  0  0  0  0  0  0  0 63  0  0
    1.1378   -3.6951    0.1446 C   0  0  0  0  0  0  0  0  0  7  0  0
    1.4481   -4.5618   -0.4036 H   0  0  0  0  0  0  0  0  0 10  0  0
    0.0397   -3.7239    0.9828 C   0  0  0  0  0  0  0  0  0  8  0  0
   -0.5434   -4.6245    1.0541 H   0  0  0  0  0  0  0  0  0  9  0  0
   -2.0134   -4.4731    2.7118 H   0  0  0  0  0  0  0  0  0 66  0  0
   -3.1595   -3.1833    3.1846 H   0  0  0  0  0  0  0  0  0 67  0  0
  1  2  1  0
  1  3  1  0
  3  4  1  0
  4  5  4  0
  5  6  1  0
  5  7  4  0
  7  8  1  0
  7  9  4  0
  9 10  1  0
 10 11  2  0
 10 12  2  0
 10 13  1  6
 13 14  1  0
 13 15  1  0
 15 16  1  0
 16 17  4  0
 17 18  1  0
 17 19  4  0
 19 20  1  0
 19 21  4  0
 21 22  1  0
 22 23  2  0
 22 24  1  0
 24 25  1  0
 25 26  1  0
 26 27  1  0
 26 28  1  0
 26 29  1  0
 29 30  1  0
 30 31  1  0
 31 32  1  0
 31 33  1  0
 31 34  1  0
 34 35  1  0
 35 36  1  0
 35 37  1  0
 35 38  1  0
 34 39  1  6
 34 40  1  0
 40 41  1  0
 40 42  1  0
 40 43  1  0
 43 44  1  0
 44 45  1  0
 44 46  1  0
 44 47  1  0
 43 48  1  6
 43 49  1  0
 49 50  1  0
 49 51  1  0
 29 52  1  0
 29 53  1  0
 25 54  1  0
 25 55  1  0
 24 56  1  0
 21 57  4  0
 57 58  1  0
 57 59  4  0
 59 60  1  0
 15 61  1  0
 15 62  1  0
  9 63  4  0
 63 64  1  0
 63 65  4  0
 65 66  1  0
  1 67  1  0
  1 68  1  0
 65  4  4  0
 59 16  4  0
 49 30  1  0
M  END
>  <sample_id>  (198)
train::COc1ccc(S(=O)(=O)NCc2ccc(C(=O)NCCCN3CC(C)CC(C)C3)cc2)cc1__gen0002

>  <partition>  (198)
BAT_EXTERNAL_CONFIRM

>  <method>  (198)
BA_seed193

>  <candidate>  (198)
primary

$$$$
train::O=C(COC(=O)C(Cc1ccccc1)NC(=O)c1ccccc1)c1ccccc1__gen0000
     RDKit          3D

 50 52  0  0  0  0  0  0  0  0999 V2000
    2.5286   -2.6520   -1.8302 O   0  0  0  0  0  0  0  0  0  0  0  0
    1.4212   -2.2286   -1.5740 C   0  0  0  0  0  0  0  0  0  1  0  0
    0.7060   -2.5289   -0.3016 C   0  0  0  0  0  0  0  0  0  2  0  0
   -0.6844   -2.6062   -0.2312 C   0  0  0  0  0  0  0  0  0  3  0  0
   -1.2942   -2.4523   -1.1189 H   0  0  0  0  0  0  0  0  0 12  0  0
   -1.2864   -2.9166    0.9663 C   0  0  0  0  0  0  0  0  0  4  0  0
   -2.3730   -2.9650    1.0184 H   0  0  0  0  0  0  0  0  0 11  0  0
   -0.5318   -3.1319    2.1078 C   0  0  0  0  0  0  0  0  0  5  0  0
   -1.0206   -3.3759    3.0366 H   0  0  0  0  0  0  0  0  0 10  0  0
    0.8446   -3.0760    2.0334 C   0  0  0  0  0  0  0  0  0  6  0  0
    1.4383   -3.2567    2.9166 H   0  0  0  0  0  0  0  0  0  9  0  0
    1.4716   -2.7738    0.8378 C   0  0  0  0  0  0  0  0  0  7  0  0
    2.5421   -2.7342    0.7606 H   0  0  0  0  0  0  0  0  0  8  0  0
    0.7001   -1.3252   -2.5671 C   0  0  0  0  0  0  0  0  0 13  0  0
   -0.0207   -1.9075   -3.1541 H   0  0  0  0  0  0  0  0  0 14  0  0
    1.4419   -0.8823   -3.2547 H   0  0  0  0  0  0  0  0  0 15  0  0
    0.0183   -0.2792   -1.8696 O   0  0  0  0  0  0  0  0  0 16  0  0
   -1.1560    0.1040   -2.3494 C   0  0  0  0  0  0  0  0  0 17  0  0
   -1.6746   -0.3174   -3.3440 O   0  0  0  0  0  0  0  0  0 18  0  0
   -1.7203    1.2281   -1.4910 C   0  0  1  0  0  0  0  0  0 19  0  0
   -1.3116    1.0910   -0.0958 N   0  0  0  0  0  0  0  0  0 20  0  0
   -1.9978    0.3339    0.7597 C   0  0  0  0  0  0  0  0  0 21  0  0
   -3.0863   -0.1468    0.5034 O   0  0  0  0  0  0  0  0  0 22  0  0
   -1.3688    0.1576    2.1090 C   0  0  0  0  0  0  0  0  0 23  0  0
    0.0085    0.2460    2.3146 C   0  0  0  0  0  0  0  0  0 24  0  0
    0.6937    0.4475    1.4979 H   0  0  0  0  0  0  0  0  0 33  0  0
    0.5345    0.0334    3.5742 C   0  0  0  0  0  0  0  0  0 25  0  0
    1.6001    0.1083    3.7255 H   0  0  0  0  0  0  0  0  0 32  0  0
   -0.2984   -0.2656    4.6359 C   0  0  0  0  0  0  0  0  0 26  0  0
    0.1123   -0.4345    5.6170 H   0  0  0  0  0  0  0  0  0 31  0  0
   -1.6576   -0.3822    4.4254 C   0  0  0  0  0  0  0  0  0 27  0  0
   -2.3116   -0.6216    5.2573 H   0  0  0  0  0  0  0  0  0 30  0  0
   -2.1944   -0.1644    3.1733 C   0  0  0  0  0  0  0  0  0 28  0  0
   -3.2541   -0.2642    2.9888 H   0  0  0  0  0  0  0  0  0 29  0  0
   -0.3745    1.4004    0.1170 H   0  0  0  0  0  0  0  0  0 34  0  0
   -2.8104    1.1799   -1.5118 H   0  0  0  0  0  0  0  0  0 35  0  0
   -1.2291    2.5822   -2.0685 C   0  0  0  0  0  0  0  0  0 36  0  0
    0.2693    2.6301   -2.0959 C   0  0  0  0  0  0  0  0  0 37  0  0
    0.9885    3.0671   -0.9836 C   0  0  0  0  0  0  0  0  0 38  0  0
    0.4598    3.4359   -0.1186 H   0  0  0  0  0  0  0  0  0 47  0  0
    2.3725    3.0447   -0.9929 C   0  0  0  0  0  0  0  0  0 39  0  0
    2.9167    3.3863   -0.1265 H   0  0  0  0  0  0  0  0  0 46  0  0
    3.0627    2.5872   -2.1070 C   0  0  0  0  0  0  0  0  0 40  0  0
    4.1430    2.5604   -2.0931 H   0  0  0  0  0  0  0  0  0 45  0  0
    2.3575    2.1528   -3.2125 C   0  0  0  0  0  0  0  0  0 41  0  0
    2.8841    1.8187   -4.0845 H   0  0  0  0  0  0  0  0  0 44  0  0
    0.9718    2.1768   -3.2098 C   0  0  0  0  0  0  0  0  0 42  0  0
    0.4366    1.8564   -4.0836 H   0  0  0  0  0  0  0  0  0 43  0  0
   -1.6282    2.6742   -3.0633 H   0  0  0  0  0  0  0  0  0 48  0  0
   -1.6393    3.3861   -1.4430 H   0  0  0  0  0  0  0  0  0 49  0  0
  1  2  2  0
  2  3  1  0
  3  4  4  0
  4  5  1  0
  4  6  4  0
  6  7  1  0
  6  8  4  0
  8  9  1  0
  8 10  4  0
 10 11  1  0
 10 12  4  0
 12 13  1  0
  2 14  1  0
 14 15  1  0
 14 16  1  0
 14 17  1  0
 17 18  1  0
 18 19  2  0
 18 20  1  0
 20 21  1  0
 21 22  1  0
 22 23  2  0
 22 24  1  0
 24 25  4  0
 25 26  1  0
 25 27  4  0
 27 28  1  0
 27 29  4  0
 29 30  1  0
 29 31  4  0
 31 32  1  0
 31 33  4  0
 33 34  1  0
 21 35  1  0
 20 36  1  1
 20 37  1  0
 37 38  1  0
 38 39  4  0
 39 40  1  0
 39 41  4  0
 41 42  1  0
 41 43  4  0
 43 44  1  0
 43 45  4  0
 45 46  1  0
 45 47  4  0
 47 48  1  0
 37 49  1  0
 37 50  1  0
 12  3  4  0
 33 24  4  0
 47 38  4  0
M  END
>  <sample_id>  (199)
train::O=C(COC(=O)C(Cc1ccccc1)NC(=O)c1ccccc1)c1ccccc1__gen0000

>  <partition>  (199)
BAT_EXTERNAL_CONFIRM

>  <method>  (199)
BA_seed193

>  <candidate>  (199)
primary

$$$$
train::O=C(COC(=O)C(Cc1ccccc1)NC(=O)c1ccccc1)c1ccccc1__gen0001
     RDKit          3D

 50 52  0  0  0  0  0  0  0  0999 V2000
    4.4304    1.7042   -1.4329 O   0  0  0  0  0  0  0  0  0  0  0  0
    3.7339    0.7052   -1.3092 C   0  0  0  0  0  0  0  0  0  1  0  0
    3.2203    0.2432   -0.0028 C   0  0  0  0  0  0  0  0  0  2  0  0
    2.9960   -1.1066    0.2810 C   0  0  0  0  0  0  0  0  0  3  0  0
    3.2205   -1.8568   -0.4630 H   0  0  0  0  0  0  0  0  0 12  0  0
    2.5095   -1.4965    1.5165 C   0  0  0  0  0  0  0  0  0  4  0  0
    2.3267   -2.5407    1.7155 H   0  0  0  0  0  0  0  0  0 11  0  0
    2.2079   -0.5407    2.4749 C   0  0  0  0  0  0  0  0  0  5  0  0
    1.8122   -0.8502    3.4308 H   0  0  0  0  0  0  0  0  0 10  0  0
    2.4265    0.8037    2.2079 C   0  0  0  0  0  0  0  0  0  6  0  0
    2.2019    1.5495    2.9600 H   0  0  0  0  0  0  0  0  0  9  0  0
    2.9452    1.1939    0.9886 C   0  0  0  0  0  0  0  0  0  7  0  0
    3.1308    2.2355    0.7528 H   0  0  0  0  0  0  0  0  0  8  0  0
    3.3305   -0.0960   -2.5323 C   0  0  0  0  0  0  0  0  0 13  0  0
    3.2703    0.5989   -3.3900 H   0  0  0  0  0  0  0  0  0 14  0  0
    4.0803   -0.8632   -2.7323 H   0  0  0  0  0  0  0  0  0 15  0  0
    2.0910   -0.7913   -2.4088 O   0  0  0  0  0  0  0  0  0 16  0  0
    1.0462   -0.0628   -1.9925 C   0  0  0  0  0  0  0  0  0 17  0  0
    1.0690    1.1074   -1.7517 O   0  0  0  0  0  0  0  0  0 18  0  0
   -0.1709   -0.9492   -1.7824 C   0  0  1  0  0  0  0  0  0 19  0  0
   -0.5816   -0.8223   -0.4112 N   0  0  0  0  0  0  0  0  0 20  0  0
   -0.6481   -1.8925    0.4238 C   0  0  0  0  0  0  0  0  0 21  0  0
   -0.3461   -3.0131    0.0865 O   0  0  0  0  0  0  0  0  0 22  0  0
   -1.1408   -1.5512    1.7931 C   0  0  0  0  0  0  0  0  0 23  0  0
   -0.7085   -2.3536    2.8512 C   0  0  0  0  0  0  0  0  0 24  0  0
   -0.0352   -3.1720    2.6400 H   0  0  0  0  0  0  0  0  0 33  0  0
   -1.1318   -2.1006    4.1383 C   0  0  0  0  0  0  0  0  0 25  0  0
   -0.7839   -2.7167    4.9479 H   0  0  0  0  0  0  0  0  0 32  0  0
   -2.0134   -1.0599    4.3886 C   0  0  0  0  0  0  0  0  0 26  0  0
   -2.3614   -0.8609    5.3905 H   0  0  0  0  0  0  0  0  0 31  0  0
   -2.4735   -0.2882    3.3310 C   0  0  0  0  0  0  0  0  0 27  0  0
   -3.1793    0.5082    3.5131 H   0  0  0  0  0  0  0  0  0 30  0  0
   -2.0493   -0.5334    2.0446 C   0  0  0  0  0  0  0  0  0 28  0  0
   -2.4406    0.0595    1.2272 H   0  0  0  0  0  0  0  0  0 29  0  0
   -0.7490    0.1243   -0.0862 H   0  0  0  0  0  0  0  0  0 34  0  0
    0.0756   -2.0055   -1.9446 H   0  0  0  0  0  0  0  0  0 35  0  0
   -1.3244   -0.5387   -2.7520 C   0  0  0  0  0  0  0  0  0 36  0  0
   -1.8701    0.8198   -2.3984 C   0  0  0  0  0  0  0  0  0 37  0  0
   -1.3052    1.9864   -2.9008 C   0  0  0  0  0  0  0  0  0 38  0  0
   -0.4820    1.9300   -3.6001 H   0  0  0  0  0  0  0  0  0 47  0  0
   -1.8012    3.2240   -2.5425 C   0  0  0  0  0  0  0  0  0 39  0  0
   -1.3346    4.1196   -2.9428 H   0  0  0  0  0  0  0  0  0 46  0  0
   -2.8513    3.3204   -1.6501 C   0  0  0  0  0  0  0  0  0 40  0  0
   -3.2320    4.2830   -1.3522 H   0  0  0  0  0  0  0  0  0 45  0  0
   -3.4270    2.1666   -1.1489 C   0  0  0  0  0  0  0  0  0 41  0  0
   -4.2664    2.2337   -0.4671 H   0  0  0  0  0  0  0  0  0 44  0  0
   -2.9442    0.9329   -1.5303 C   0  0  0  0  0  0  0  0  0 42  0  0
   -3.4245    0.0283   -1.1484 H   0  0  0  0  0  0  0  0  0 43  0  0
   -0.9373   -0.5329   -3.7680 H   0  0  0  0  0  0  0  0  0 48  0  0
   -2.1109   -1.2827   -2.6624 H   0  0  0  0  0  0  0  0  0 49  0  0
  1  2  2  0
  2  3  1  0
  3  4  4  0
  4  5  1  0
  4  6  4  0
  6  7  1  0
  6  8  4  0
  8  9  1  0
  8 10  4  0
 10 11  1  0
 10 12  4  0
 12 13  1  0
  2 14  1  0
 14 15  1  0
 14 16  1  0
 14 17  1  0
 17 18  1  0
 18 19  2  0
 18 20  1  0
 20 21  1  0
 21 22  1  0
 22 23  2  0
 22 24  1  0
 24 25  4  0
 25 26  1  0
 25 27  4  0
 27 28  1  0
 27 29  4  0
 29 30  1  0
 29 31  4  0
 31 32  1  0
 31 33  4  0
 33 34  1  0
 21 35  1  0
 20 36  1  6
 20 37  1  0
 37 38  1  0
 38 39  4  0
 39 40  1  0
 39 41  4  0
 41 42  1  0
 41 43  4  0
 43 44  1  0
 43 45  4  0
 45 46  1  0
 45 47  4  0
 47 48  1  0
 37 49  1  0
 37 50  1  0
 12  3  4  0
 33 24  4  0
 47 38  4  0
M  END
>  <sample_id>  (200)
train::O=C(COC(=O)C(Cc1ccccc1)NC(=O)c1ccccc1)c1ccccc1__gen0001

>  <partition>  (200)
BAT_EXTERNAL_CONFIRM

>  <method>  (200)
BA_seed193

>  <candidate>  (200)
primary

$$$$
train::O=C(COC(=O)C(Cc1ccccc1)NC(=O)c1ccccc1)c1ccccc1__gen0002
     RDKit          3D

 50 52  0  0  0  0  0  0  0  0999 V2000
    0.6293   -5.3491    0.0277 O   0  0  0  0  0  0  0  0  0  0  0  0
    0.0674   -4.3098    0.2965 C   0  0  0  0  0  0  0  0  0  1  0  0
    0.7032   -3.2241    1.0801 C   0  0  0  0  0  0  0  0  0  2  0  0
    2.0831   -3.0408    0.9489 C   0  0  0  0  0  0  0  0  0  3  0  0
    2.6298   -3.6788    0.2575 H   0  0  0  0  0  0  0  0  0 12  0  0
    2.7286   -2.0450    1.6639 C   0  0  0  0  0  0  0  0  0  4  0  0
    3.7939   -1.8938    1.5399 H   0  0  0  0  0  0  0  0  0 11  0  0
    2.0103   -1.2562    2.5447 C   0  0  0  0  0  0  0  0  0  5  0  0
    2.5050   -0.4930    3.1267 H   0  0  0  0  0  0  0  0  0 10  0  0
    0.6535   -1.4502    2.7091 C   0  0  0  0  0  0  0  0  0  6  0  0
    0.0865   -0.8404    3.3996 H   0  0  0  0  0  0  0  0  0  9  0  0
   -0.0029   -2.4190    1.9615 C   0  0  0  0  0  0  0  0  0  7  0  0
   -1.0635   -2.5430    2.0890 H   0  0  0  0  0  0  0  0  0  8  0  0
   -1.3655   -4.0832   -0.1077 C   0  0  0  0  0  0  0  0  0 13  0  0
   -1.5834   -4.6834   -1.0072 H   0  0  0  0  0  0  0  0  0 14  0  0
   -2.0676   -4.3519    0.6797 H   0  0  0  0  0  0  0  0  0 15  0  0
   -1.6328   -2.6922   -0.4056 O   0  0  0  0  0  0  0  0  0 16  0  0
   -1.0430   -2.2149   -1.5128 C   0  0  0  0  0  0  0  0  0 17  0  0
   -0.4044   -2.8775   -2.2816 O   0  0  0  0  0  0  0  0  0 18  0  0
   -1.2334   -0.7011   -1.6183 C   0  0  1  0  0  0  0  0  0 19  0  0
   -0.6315   -0.0765   -0.4662 N   0  0  0  0  0  0  0  0  0 20  0  0
   -1.3026    0.7801    0.3368 C   0  0  0  0  0  0  0  0  0 21  0  0
   -2.4897    1.0093    0.2090 O   0  0  0  0  0  0  0  0  0 22  0  0
   -0.4868    1.3839    1.4155 C   0  0  0  0  0  0  0  0  0 23  0  0
   -1.1108    1.6866    2.6295 C   0  0  0  0  0  0  0  0  0 24  0  0
   -2.1566    1.4752    2.7341 H   0  0  0  0  0  0  0  0  0 33  0  0
   -0.3830    2.2868    3.6508 C   0  0  0  0  0  0  0  0  0 25  0  0
   -0.8746    2.5131    4.5790 H   0  0  0  0  0  0  0  0  0 32  0  0
    0.9599    2.5815    3.4756 C   0  0  0  0  0  0  0  0  0 26  0  0
    1.5092    3.0425    4.2730 H   0  0  0  0  0  0  0  0  0 31  0  0
    1.5775    2.2872    2.2758 C   0  0  0  0  0  0  0  0  0 27  0  0
    2.6108    2.5379    2.1240 H   0  0  0  0  0  0  0  0  0 30  0  0
    0.8596    1.6943    1.2510 C   0  0  0  0  0  0  0  0  0 28  0  0
    1.3526    1.4930    0.2961 H   0  0  0  0  0  0  0  0  0 29  0  0
    0.3662   -0.2495   -0.3228 H   0  0  0  0  0  0  0  0  0 34  0  0
   -2.3024   -0.4558   -1.5381 H   0  0  0  0  0  0  0  0  0 35  0  0
   -0.6048   -0.2210   -2.9418 C   0  0  0  0  0  0  0  0  0 36  0  0
   -0.4814    1.2688   -2.9805 C   0  0  0  0  0  0  0  0  0 37  0  0
    0.7572    1.8603   -2.7160 C   0  0  0  0  0  0  0  0  0 38  0  0
    1.6215    1.2258   -2.5569 H   0  0  0  0  0  0  0  0  0 47  0  0
    0.8934    3.2280   -2.7183 C   0  0  0  0  0  0  0  0  0 39  0  0
    1.8625    3.6712   -2.5117 H   0  0  0  0  0  0  0  0  0 46  0  0
   -0.2039    4.0395   -2.9515 C   0  0  0  0  0  0  0  0  0 40  0  0
   -0.1053    5.1098   -2.9345 H   0  0  0  0  0  0  0  0  0 45  0  0
   -1.4370    3.4582   -3.1969 C   0  0  0  0  0  0  0  0  0 41  0  0
   -2.2977    4.0810   -3.3874 H   0  0  0  0  0  0  0  0  0 44  0  0
   -1.5725    2.0795   -3.2023 C   0  0  0  0  0  0  0  0  0 42  0  0
   -2.5395    1.6293   -3.4037 H   0  0  0  0  0  0  0  0  0 43  0  0
   -1.2476   -0.5754   -3.7562 H   0  0  0  0  0  0  0  0  0 48  0  0
    0.3630   -0.6975   -3.0572 H   0  0  0  0  0  0  0  0  0 49  0  0
  1  2  2  0
  2  3  1  0
  3  4  4  0
  4  5  1  0
  4  6  4  0
  6  7  1  0
  6  8  4  0
  8  9  1  0
  8 10  4  0
 10 11  1  0
 10 12  4  0
 12 13  1  0
  2 14  1  0
 14 15  1  0
 14 16  1  0
 14 17  1  0
 17 18  1  0
 18 19  2  0
 18 20  1  0
 20 21  1  0
 21 22  1  0
 22 23  2  0
 22 24  1  0
 24 25  4  0
 25 26  1  0
 25 27  4  0
 27 28  1  0
 27 29  4  0
 29 30  1  0
 29 31  4  0
 31 32  1  0
 31 33  4  0
 33 34  1  0
 21 35  1  0
 20 36  1  6
 20 37  1  0
 37 38  1  0
 38 39  4  0
 39 40  1  0
 39 41  4  0
 41 42  1  0
 41 43  4  0
 43 44  1  0
 43 45  4  0
 45 46  1  0
 45 47  4  0
 47 48  1  0
 37 49  1  0
 37 50  1  0
 12  3  4  0
 33 24  4  0
 47 38  4  0
M  END
>  <sample_id>  (201)
train::O=C(COC(=O)C(Cc1ccccc1)NC(=O)c1ccccc1)c1ccccc1__gen0002

>  <partition>  (201)
BAT_EXTERNAL_CONFIRM

>  <method>  (201)
BA_seed193

>  <candidate>  (201)
primary

$$$$
train::O=C(NCCc1ccc(Cl)cc1)C1CC(=O)N(C2CCCCC2)C1__gen0000
     RDKit          3D

 49 51  0  0  0  0  0  0  0  0999 V2000
   -0.1589   -0.8358   -2.5746 O   0  0  0  0  0  0  0  0  0  0  0  0
    0.9839   -0.5814   -2.3297 C   0  0  0  0  0  0  0  0  0  1  0  0
    2.0325   -1.3549   -2.7442 N   0  0  0  0  0  0  0  0  0  2  0  0
    2.9590   -1.1067   -2.4116 H   0  0  0  0  0  0  0  0  0  3  0  0
    1.8185   -2.6549   -3.3330 C   0  0  0  0  0  0  0  0  0  4  0  0
    0.8496   -2.6087   -3.8223 H   0  0  0  0  0  0  0  0  0  5  0  0
    1.8189   -3.7565   -2.2590 C   0  0  0  0  0  0  0  0  0  6  0  0
    0.7138   -3.4821   -1.2669 C   0  0  0  0  0  0  0  0  0  7  0  0
    1.0042   -2.8764   -0.0543 C   0  0  0  0  0  0  0  0  0  8  0  0
    2.0281   -2.6966    0.2320 H   0  0  0  0  0  0  0  0  0 17  0  0
   -0.0261   -2.5112    0.8133 C   0  0  0  0  0  0  0  0  0  9  0  0
    0.2124   -2.0395    1.7588 H   0  0  0  0  0  0  0  0  0 16  0  0
   -1.3236   -2.7683    0.4423 C   0  0  0  0  0  0  0  0  0 10  0  0
   -2.6125   -2.3048    1.5116 Cl  0  0  0  0  0  0  0  0  0 15  0  0
   -1.6233   -3.3892   -0.7523 C   0  0  0  0  0  0  0  0  0 11  0  0
   -2.6649   -3.5542   -1.0186 H   0  0  0  0  0  0  0  0  0 14  0  0
   -0.6081   -3.7366   -1.6031 C   0  0  0  0  0  0  0  0  0 12  0  0
   -0.8429   -4.1978   -2.5489 H   0  0  0  0  0  0  0  0  0 13  0  0
    2.7813   -3.8061   -1.7678 H   0  0  0  0  0  0  0  0  0 18  0  0
    1.6407   -4.7274   -2.7690 H   0  0  0  0  0  0  0  0  0 19  0  0
    2.6034   -2.8284   -4.0701 H   0  0  0  0  0  0  0  0  0 20  0  0
    1.4056    0.6826   -1.5603 C   0  0  2  0  0  0  0  0  0 21  0  0
    1.8079    1.3714   -2.2964 H   0  0  0  0  0  0  0  0  0 22  0  0
    2.4202    0.4201   -0.4380 C   0  0  0  0  0  0  0  0  0 23  0  0
    3.3675    0.9542   -0.5913 H   0  0  0  0  0  0  0  0  0 47  0  0
    2.6392   -0.6310   -0.3002 H   0  0  0  0  0  0  0  0  0 48  0  0
    1.7732    0.9231    0.8328 C   0  0  0  0  0  0  0  0  0 24  0  0
    2.2610    0.8752    1.9381 O   0  0  0  0  0  0  0  0  0 25  0  0
    0.5601    1.4494    0.5398 N   0  0  0  0  0  0  0  0  0 26  0  0
   -0.2800    2.0759    1.5227 C   0  0  2  0  0  0  0  0  0 30  0  0
    0.3087    2.0644    2.4435 H   0  0  0  0  0  0  0  0  0 46  0  0
   -1.5760    1.2899    1.7718 C   0  0  0  0  0  0  0  0  0 31  0  0
   -1.3156    0.2570    2.0330 H   0  0  0  0  0  0  0  0  0 44  0  0
   -2.1626    1.2436    0.8372 H   0  0  0  0  0  0  0  0  0 45  0  0
   -2.3705    1.9657    2.8735 C   0  0  0  0  0  0  0  0  0 32  0  0
   -3.3021    1.4012    3.0353 H   0  0  0  0  0  0  0  0  0 42  0  0
   -1.8111    1.9227    3.8163 H   0  0  0  0  0  0  0  0  0 43  0  0
   -2.7014    3.3852    2.5141 C   0  0  0  0  0  0  0  0  0 33  0  0
   -3.2777    3.8666    3.3120 H   0  0  0  0  0  0  0  0  0 40  0  0
   -3.3477    3.3909    1.6077 H   0  0  0  0  0  0  0  0  0 41  0  0
   -1.4245    4.1774    2.2483 C   0  0  0  0  0  0  0  0  0 34  0  0
   -1.6621    5.1987    1.9761 H   0  0  0  0  0  0  0  0  0 38  0  0
   -0.8267    4.2106    3.1778 H   0  0  0  0  0  0  0  0  0 39  0  0
   -0.6151    3.5231    1.1474 C   0  0  0  0  0  0  0  0  0 35  0  0
   -1.1988    3.5463    0.2166 H   0  0  0  0  0  0  0  0  0 36  0  0
    0.3280    4.0779    0.9683 H   0  0  0  0  0  0  0  0  0 37  0  0
    0.1850    1.2864   -0.8358 C   0  0  0  0  0  0  0  0  0 27  0  0
   -0.6777    0.6272   -0.9323 H   0  0  0  0  0  0  0  0  0 28  0  0
   -0.0931    2.2616   -1.2906 H   0  0  0  0  0  0  0  0  0 29  0  0
  1  2  2  0
  2  3  1  0
  3  4  1  0
  3  5  1  0
  5  6  1  0
  5  7  1  0
  7  8  1  0
  8  9  4  0
  9 10  1  0
  9 11  4  0
 11 12  1  0
 11 13  4  0
 13 14  1  0
 13 15  4  0
 15 16  1  0
 15 17  4  0
 17 18  1  0
  7 19  1  0
  7 20  1  0
  5 21  1  0
  2 22  1  0
 22 23  1  1
 22 24  1  0
 24 25  1  0
 24 26  1  0
 24 27  1  0
 27 28  2  0
 27 29  1  0
 29 30  1  0
 30 31  1  1
 30 32  1  0
 32 33  1  0
 32 34  1  0
 32 35  1  0
 35 36  1  0
 35 37  1  0
 35 38  1  0
 38 39  1  0
 38 40  1  0
 38 41  1  0
 41 42  1  0
 41 43  1  0
 41 44  1  0
 44 45  1  0
 44 46  1  0
 29 47  1  0
 47 48  1  0
 47 49  1  0
 17  8  4  0
 47 22  1  0
 44 30  1  0
M  END
>  <sample_id>  (202)
train::O=C(NCCc1ccc(Cl)cc1)C1CC(=O)N(C2CCCCC2)C1__gen0000

>  <partition>  (202)
BAT_EXTERNAL_CONFIRM

>  <method>  (202)
BA_seed193

>  <candidate>  (202)
primary

$$$$
train::O=C(NCCc1ccc(Cl)cc1)C1CC(=O)N(C2CCCCC2)C1__gen0001
     RDKit          3D

 49 51  0  0  0  0  0  0  0  0999 V2000
    4.2062   -0.8602   -1.4321 O   0  0  0  0  0  0  0  0  0  0  0  0
    3.0898   -0.4243   -1.2215 C   0  0  0  0  0  0  0  0  0  1  0  0
    2.4596   -0.5188   -0.0238 N   0  0  0  0  0  0  0  0  0  2  0  0
    1.5863   -0.0505    0.1143 H   0  0  0  0  0  0  0  0  0  3  0  0
    3.1135   -1.0216    1.1556 C   0  0  0  0  0  0  0  0  0  4  0  0
    2.6417   -1.9825    1.4454 H   0  0  0  0  0  0  0  0  0  5  0  0
    3.0066   -0.0358    2.3233 C   0  0  0  0  0  0  0  0  0  6  0  0
    1.5673    0.2043    2.6839 C   0  0  0  0  0  0  0  0  0  7  0  0
    0.8726   -0.7140    3.4595 C   0  0  0  0  0  0  0  0  0  8  0  0
    1.3686   -1.5949    3.8213 H   0  0  0  0  0  0  0  0  0 17  0  0
   -0.4583   -0.5190    3.7701 C   0  0  0  0  0  0  0  0  0  9  0  0
   -0.9962   -1.2321    4.3872 H   0  0  0  0  0  0  0  0  0 16  0  0
   -1.1051    0.6211    3.3232 C   0  0  0  0  0  0  0  0  0 10  0  0
   -2.7677    0.8789    3.7305 Cl  0  0  0  0  0  0  0  0  0 15  0  0
   -0.4291    1.5591    2.5541 C   0  0  0  0  0  0  0  0  0 11  0  0
   -0.9389    2.4379    2.1869 H   0  0  0  0  0  0  0  0  0 14  0  0
    0.8982    1.3339    2.2424 C   0  0  0  0  0  0  0  0  0 12  0  0
    1.4205    2.0806    1.6436 H   0  0  0  0  0  0  0  0  0 13  0  0
    3.4844    0.9019    2.0354 H   0  0  0  0  0  0  0  0  0 18  0  0
    3.5346   -0.4585    3.1805 H   0  0  0  0  0  0  0  0  0 19  0  0
    4.1566   -1.2207    0.9025 H   0  0  0  0  0  0  0  0  0 20  0  0
    2.2738    0.2676   -2.3038 C   0  0  2  0  0  0  0  0  0 21  0  0
    2.8328    0.1508   -3.2385 H   0  0  0  0  0  0  0  0  0 22  0  0
    2.0283    1.7388   -1.9657 C   0  0  0  0  0  0  0  0  0 23  0  0
    2.7585    2.1411   -1.2659 H   0  0  0  0  0  0  0  0  0 47  0  0
    2.0320    2.3621   -2.8672 H   0  0  0  0  0  0  0  0  0 48  0  0
    0.6429    1.7728   -1.3733 C   0  0  0  0  0  0  0  0  0 24  0  0
    0.1491    2.6847   -0.7410 O   0  0  0  0  0  0  0  0  0 25  0  0
    0.0163    0.6015   -1.6726 N   0  0  0  0  0  0  0  0  0 26  0  0
   -1.3532    0.3234   -1.3171 C   0  0  2  0  0  0  0  0  0 30  0  0
   -1.7457    1.2931   -0.9640 H   0  0  0  0  0  0  0  0  0 46  0  0
   -1.4679   -0.6837   -0.1713 C   0  0  0  0  0  0  0  0  0 31  0  0
   -0.8780   -0.3103    0.6756 H   0  0  0  0  0  0  0  0  0 44  0  0
   -1.0530   -1.6395   -0.4751 H   0  0  0  0  0  0  0  0  0 45  0  0
   -2.9264   -0.8201    0.2300 C   0  0  0  0  0  0  0  0  0 32  0  0
   -3.2913    0.1354    0.5973 H   0  0  0  0  0  0  0  0  0 42  0  0
   -3.0269   -1.5428    1.0493 H   0  0  0  0  0  0  0  0  0 43  0  0
   -3.7611   -1.2867   -0.9533 C   0  0  0  0  0  0  0  0  0 33  0  0
   -3.4237   -2.2786   -1.2605 H   0  0  0  0  0  0  0  0  0 40  0  0
   -4.8164   -1.3638   -0.6663 H   0  0  0  0  0  0  0  0  0 41  0  0
   -3.6278   -0.3023   -2.1162 C   0  0  0  0  0  0  0  0  0 34  0  0
   -4.0346    0.6581   -1.8195 H   0  0  0  0  0  0  0  0  0 38  0  0
   -4.1950   -0.6569   -2.9858 H   0  0  0  0  0  0  0  0  0 39  0  0
   -2.1645   -0.1471   -2.5223 C   0  0  0  0  0  0  0  0  0 35  0  0
   -1.7782   -1.1026   -2.8707 H   0  0  0  0  0  0  0  0  0 36  0  0
   -2.0731    0.5787   -3.3348 H   0  0  0  0  0  0  0  0  0 37  0  0
    0.8574   -0.3051   -2.4280 C   0  0  0  0  0  0  0  0  0 27  0  0
    0.7806   -1.3254   -2.0400 H   0  0  0  0  0  0  0  0  0 28  0  0
    0.5337   -0.3279   -3.4817 H   0  0  0  0  0  0  0  0  0 29  0  0
  1  2  2  0
  2  3  1  0
  3  4  1  0
  3  5  1  0
  5  6  1  0
  5  7  1  0
  7  8  1  0
  8  9  4  0
  9 10  1  0
  9 11  4  0
 11 12  1  0
 11 13  4  0
 13 14  1  0
 13 15  4  0
 15 16  1  0
 15 17  4  0
 17 18  1  0
  7 19  1  0
  7 20  1  0
  5 21  1  0
  2 22  1  0
 22 23  1  1
 22 24  1  0
 24 25  1  0
 24 26  1  0
 24 27  1  0
 27 28  2  0
 27 29  1  0
 29 30  1  0
 30 31  1  1
 30 32  1  0
 32 33  1  0
 32 34  1  0
 32 35  1  0
 35 36  1  0
 35 37  1  0
 35 38  1  0
 38 39  1  0
 38 40  1  0
 38 41  1  0
 41 42  1  0
 41 43  1  0
 41 44  1  0
 44 45  1  0
 44 46  1  0
 29 47  1  0
 47 48  1  0
 47 49  1  0
 17  8  4  0
 47 22  1  0
 44 30  1  0
M  END
>  <sample_id>  (203)
train::O=C(NCCc1ccc(Cl)cc1)C1CC(=O)N(C2CCCCC2)C1__gen0001

>  <partition>  (203)
BAT_EXTERNAL_CONFIRM

>  <method>  (203)
BA_seed193

>  <candidate>  (203)
primary

$$$$
train::O=C(NCCc1ccc(Cl)cc1)C1CC(=O)N(C2CCCCC2)C1__gen0002
     RDKit          3D

 49 51  0  0  0  0  0  0  0  0999 V2000
    0.0795    3.7395   -0.7867 O   0  0  0  0  0  0  0  0  0  0  0  0
    0.0500    2.5322   -0.7945 C   0  0  0  0  0  0  0  0  0  1  0  0
    0.8197    1.7654    0.0100 N   0  0  0  0  0  0  0  0  0  2  0  0
    0.6739    0.7614    0.0147 H   0  0  0  0  0  0  0  0  0  3  0  0
    1.5778    2.3029    1.1093 C   0  0  0  0  0  0  0  0  0  4  0  0
    1.4244    3.3897    1.0766 H   0  0  0  0  0  0  0  0  0  5  0  0
    1.1152    1.7314    2.4585 C   0  0  0  0  0  0  0  0  0  6  0  0
   -0.3785    1.8289    2.5937 C   0  0  0  0  0  0  0  0  0  7  0  0
   -1.1628    0.6835    2.6891 C   0  0  0  0  0  0  0  0  0  8  0  0
   -0.6975   -0.2904    2.6790 H   0  0  0  0  0  0  0  0  0 17  0  0
   -2.5356    0.7783    2.7770 C   0  0  0  0  0  0  0  0  0  9  0  0
   -3.1424   -0.1122    2.8399 H   0  0  0  0  0  0  0  0  0 16  0  0
   -3.1385    2.0266    2.7713 C   0  0  0  0  0  0  0  0  0 10  0  0
   -4.8606    2.1638    2.8638 Cl  0  0  0  0  0  0  0  0  0 15  0  0
   -2.3670    3.1777    2.6837 C   0  0  0  0  0  0  0  0  0 11  0  0
   -2.8443    4.1485    2.6969 H   0  0  0  0  0  0  0  0  0 14  0  0
   -0.9929    3.0744    2.6153 C   0  0  0  0  0  0  0  0  0 12  0  0
   -0.4038    3.9752    2.5490 H   0  0  0  0  0  0  0  0  0 13  0  0
    1.6208    2.2759    3.2554 H   0  0  0  0  0  0  0  0  0 18  0  0
    1.4062    0.6782    2.5212 H   0  0  0  0  0  0  0  0  0 19  0  0
    2.6442    2.1039    0.9529 H   0  0  0  0  0  0  0  0  0 20  0  0
   -0.8632    1.7645   -1.7516 C   0  0  2  0  0  0  0  0  0 21  0  0
   -1.2660    2.4797   -2.4635 H   0  0  0  0  0  0  0  0  0 22  0  0
   -1.9514    1.0403   -0.9536 C   0  0  0  0  0  0  0  0  0 23  0  0
   -2.8645    0.9266   -1.5446 H   0  0  0  0  0  0  0  0  0 47  0  0
   -2.2074    1.5257   -0.0077 H   0  0  0  0  0  0  0  0  0 48  0  0
   -1.3610   -0.3340   -0.6847 C   0  0  0  0  0  0  0  0  0 24  0  0
   -1.6964   -1.0770    0.2046 O   0  0  0  0  0  0  0  0  0 25  0  0
   -0.4048   -0.5658   -1.6129 N   0  0  0  0  0  0  0  0  0 26  0  0
    0.4325   -1.7454   -1.8156 C   0  0  2  0  0  0  0  0  0 30  0  0
    0.4459   -1.9289   -2.8989 H   0  0  0  0  0  0  0  0  0 46  0  0
   -0.1399   -2.9815   -1.1032 C   0  0  0  0  0  0  0  0  0 31  0  0
   -0.2371   -2.7820   -0.0402 H   0  0  0  0  0  0  0  0  0 44  0  0
   -1.1471   -3.1785   -1.4883 H   0  0  0  0  0  0  0  0  0 45  0  0
    0.7479   -4.1935   -1.3374 C   0  0  0  0  0  0  0  0  0 32  0  0
    0.7599   -4.4430   -2.3977 H   0  0  0  0  0  0  0  0  0 42  0  0
    0.3288   -5.0577   -0.8258 H   0  0  0  0  0  0  0  0  0 43  0  0
    2.1651   -3.9291   -0.8403 C   0  0  0  0  0  0  0  0  0 33  0  0
    2.1766   -3.7292    0.2302 H   0  0  0  0  0  0  0  0  0 40  0  0
    2.7838   -4.8110   -1.0075 H   0  0  0  0  0  0  0  0  0 41  0  0
    2.7387   -2.7114   -1.5491 C   0  0  0  0  0  0  0  0  0 34  0  0
    3.7450   -2.5128   -1.1843 H   0  0  0  0  0  0  0  0  0 38  0  0
    2.7927   -2.9145   -2.6195 H   0  0  0  0  0  0  0  0  0 39  0  0
    1.8599   -1.4890   -1.3070 C   0  0  0  0  0  0  0  0  0 35  0  0
    1.8196   -1.2567   -0.2467 H   0  0  0  0  0  0  0  0  0 36  0  0
    2.2861   -0.6313   -1.8405 H   0  0  0  0  0  0  0  0  0 37  0  0
   -0.1581    0.5915   -2.4564 C   0  0  0  0  0  0  0  0  0 27  0  0
   -0.5850    0.4265   -3.4550 H   0  0  0  0  0  0  0  0  0 28  0  0
    0.9118    0.7822   -2.5790 H   0  0  0  0  0  0  0  0  0 29  0  0
  1  2  2  0
  2  3  1  0
  3  4  1  0
  3  5  1  0
  5  6  1  0
  5  7  1  0
  7  8  1  0
  8  9  4  0
  9 10  1  0
  9 11  4  0
 11 12  1  0
 11 13  4  0
 13 14  1  0
 13 15  4  0
 15 16  1  0
 15 17  4  0
 17 18  1  0
  7 19  1  0
  7 20  1  0
  5 21  1  0
  2 22  1  0
 22 23  1  1
 22 24  1  0
 24 25  1  0
 24 26  1  0
 24 27  1  0
 27 28  2  0
 27 29  1  0
 29 30  1  0
 30 31  1  6
 30 32  1  0
 32 33  1  0
 32 34  1  0
 32 35  1  0
 35 36  1  0
 35 37  1  0
 35 38  1  0
 38 39  1  0
 38 40  1  0
 38 41  1  0
 41 42  1  0
 41 43  1  0
 41 44  1  0
 44 45  1  0
 44 46  1  0
 29 47  1  0
 47 48  1  0
 47 49  1  0
 17  8  4  0
 47 22  1  0
 44 30  1  0
M  END
>  <sample_id>  (204)
train::O=C(NCCc1ccc(Cl)cc1)C1CC(=O)N(C2CCCCC2)C1__gen0002

>  <partition>  (204)
BAT_EXTERNAL_CONFIRM

>  <method>  (204)
BA_seed193

>  <candidate>  (204)
primary

$$$$
train::Cc1ccc(C(CC(=O)O)NC(=O)CN2C(=O)c3ccccc3C2=O)cc1__gen0000
     RDKit          3D

 45 47  0  0  0  0  0  0  0  0999 V2000
   -0.0271    6.4999   -3.1122 C   0  0  0  0  0  0  0  0  0  0  0  0
   -0.2778    5.0910   -2.6424 C   0  0  0  0  0  0  0  0  0  1  0  0
    0.2555    4.0144   -3.3356 C   0  0  0  0  0  0  0  0  0  2  0  0
    0.8535    4.1933   -4.2181 H   0  0  0  0  0  0  0  0  0 41  0  0
    0.0334    2.7231   -2.9129 C   0  0  0  0  0  0  0  0  0  3  0  0
    0.4531    1.8970   -3.4605 H   0  0  0  0  0  0  0  0  0 40  0  0
   -0.7364    2.4708   -1.7850 C   0  0  0  0  0  0  0  0  0  4  0  0
   -0.9795    1.0502   -1.3142 C   0  0  1  0  0  0  0  0  0  9  0  0
   -0.3661    0.8241   -0.0322 N   0  0  0  0  0  0  0  0  0 10  0  0
    0.1976   -0.3469    0.3245 C   0  0  0  0  0  0  0  0  0 11  0  0
    0.4013   -1.2642   -0.4418 O   0  0  0  0  0  0  0  0  0 12  0  0
    0.6533   -0.3959    1.7910 C   0  0  0  0  0  0  0  0  0 13  0  0
    0.9856   -1.7492    2.1488 N   0  0  0  0  0  0  0  0  0 14  0  0
    0.0483   -2.7720    2.1088 C   0  0  0  0  0  0  0  0  0 15  0  0
   -1.1215   -2.6088    1.9445 O   0  0  0  0  0  0  0  0  0 16  0  0
    0.8094   -4.0115    2.3553 C   0  0  0  0  0  0  0  0  0 17  0  0
    0.3787   -5.3214    2.4621 C   0  0  0  0  0  0  0  0  0 18  0  0
   -0.6608   -5.5672    2.3447 H   0  0  0  0  0  0  0  0  0 28  0  0
    1.3409   -6.2915    2.6765 C   0  0  0  0  0  0  0  0  0 19  0  0
    1.0479   -7.3299    2.7672 H   0  0  0  0  0  0  0  0  0 27  0  0
    2.6908   -5.9646    2.7990 C   0  0  0  0  0  0  0  0  0 20  0  0
    3.4210   -6.7469    2.9734 H   0  0  0  0  0  0  0  0  0 26  0  0
    3.1113   -4.6482    2.7149 C   0  0  0  0  0  0  0  0  0 21  0  0
    4.1576   -4.3769    2.8040 H   0  0  0  0  0  0  0  0  0 25  0  0
    2.1573   -3.6761    2.4706 C   0  0  0  0  0  0  0  0  0 22  0  0
    2.2866   -2.2081    2.3062 C   0  0  0  0  0  0  0  0  0 23  0  0
    3.2623   -1.4961    2.3562 O   0  0  0  0  0  0  0  0  0 24  0  0
    1.5558    0.2144    1.9348 H   0  0  0  0  0  0  0  0  0 29  0  0
   -0.1457   -0.0165    2.4396 H   0  0  0  0  0  0  0  0  0 30  0  0
   -0.5374    1.5111    0.6966 H   0  0  0  0  0  0  0  0  0 31  0  0
   -2.4891    0.7444   -1.2609 C   0  0  0  0  0  0  0  0  0 32  0  0
   -2.9654    1.3551   -0.4942 H   0  0  0  0  0  0  0  0  0 33  0  0
   -2.7130   -0.7133   -0.9278 C   0  0  0  0  0  0  0  0  0 34  0  0
   -3.0197   -1.5509   -1.7423 O   0  0  0  0  0  0  0  0  0 35  0  0
   -2.5365   -0.9280    0.3837 O   0  0  0  0  0  0  0  0  0 36  0  0
   -2.5243   -1.8831    0.5904 H   0  0  0  0  0  0  0  0  0 37  0  0
   -2.9474    0.9584   -2.2286 H   0  0  0  0  0  0  0  0  0 38  0  0
   -0.5146    0.3469   -2.0044 H   0  0  0  0  0  0  0  0  0 39  0  0
   -1.2637    3.5410   -1.0813 C   0  0  0  0  0  0  0  0  0  5  0  0
   -1.8740    3.3726   -0.2094 H   0  0  0  0  0  0  0  0  0  8  0  0
   -1.0594    4.8376   -1.5225 C   0  0  0  0  0  0  0  0  0  6  0  0
   -1.4788    5.6651   -0.9666 H   0  0  0  0  0  0  0  0  0  7  0  0
   -0.1403    6.5668   -4.1994 H   0  0  0  0  0  0  0  0  0 42  0  0
   -0.7153    7.1992   -2.6424 H   0  0  0  0  0  0  0  0  0 43  0  0
    0.9930    6.7908   -2.8579 H   0  0  0  0  0  0  0  0  0 44  0  0
  1  2  1  0
  2  3  4  0
  3  4  1  0
  3  5  4  0
  5  6  1  0
  5  7  4  0
  7  8  1  0
  8  9  1  0
  9 10  1  0
 10 11  2  0
 10 12  1  0
 12 13  1  0
 13 14  1  0
 14 15  2  0
 14 16  1  0
 16 17  4  0
 17 18  1  0
 17 19  4  0
 19 20  1  0
 19 21  4  0
 21 22  1  0
 21 23  4  0
 23 24  1  0
 23 25  4  0
 25 26  1  0
 26 27  2  0
 12 28  1  0
 12 29  1  0
  9 30  1  0
  8 31  1  0
 31 32  1  0
 31 33  1  0
 33 34  2  0
 33 35  1  0
 35 36  1  0
 31 37  1  0
  8 38  1  6
  7 39  4  0
 39 40  1  0
 39 41  4  0
 41 42  1  0
  1 43  1  0
  1 44  1  0
  1 45  1  0
 41  2  4  0
 26 13  1  0
 25 16  4  0
M  END
>  <sample_id>  (205)
train::Cc1ccc(C(CC(=O)O)NC(=O)CN2C(=O)c3ccccc3C2=O)cc1__gen0000

>  <partition>  (205)
BAT_EXTERNAL_CONFIRM

>  <method>  (205)
BA_seed193

>  <candidate>  (205)
primary

$$$$
train::Cc1ccc(C(CC(=O)O)NC(=O)CN2C(=O)c3ccccc3C2=O)cc1__gen0001
     RDKit          3D

 45 47  0  0  0  0  0  0  0  0999 V2000
    0.6386    0.9406   -4.4625 C   0  0  0  0  0  0  0  0  0  0  0  0
    1.0826    0.8452   -3.0327 C   0  0  0  0  0  0  0  0  0  1  0  0
    0.1773    0.6775   -2.0098 C   0  0  0  0  0  0  0  0  0  2  0  0
   -0.8783    0.6497   -2.2319 H   0  0  0  0  0  0  0  0  0 41  0  0
    0.6061    0.5607   -0.7057 C   0  0  0  0  0  0  0  0  0  3  0  0
   -0.1408    0.4363    0.0681 H   0  0  0  0  0  0  0  0  0 40  0  0
    1.9527    0.5988   -0.3771 C   0  0  0  0  0  0  0  0  0  4  0  0
    2.3994    0.5155    1.0764 C   0  0  1  0  0  0  0  0  0  9  0  0
    1.3855   -0.0901    1.9138 N   0  0  0  0  0  0  0  0  0 10  0  0
    0.9341   -1.3523    1.7969 C   0  0  0  0  0  0  0  0  0 11  0  0
    1.4723   -2.2100    1.1307 O   0  0  0  0  0  0  0  0  0 12  0  0
   -0.3468   -1.6321    2.5921 C   0  0  0  0  0  0  0  0  0 13  0  0
   -1.5059   -0.9958    1.9766 N   0  0  0  0  0  0  0  0  0 14  0  0
   -1.7576    0.3623    1.9944 C   0  0  0  0  0  0  0  0  0 15  0  0
   -1.0763    1.1734    2.5656 O   0  0  0  0  0  0  0  0  0 16  0  0
   -3.0108    0.5352    1.2372 C   0  0  0  0  0  0  0  0  0 17  0  0
   -3.7266    1.6833    0.9438 C   0  0  0  0  0  0  0  0  0 18  0  0
   -3.3905    2.6515    1.2879 H   0  0  0  0  0  0  0  0  0 28  0  0
   -4.8826    1.5399    0.1848 C   0  0  0  0  0  0  0  0  0 19  0  0
   -5.4627    2.4167   -0.0602 H   0  0  0  0  0  0  0  0  0 27  0  0
   -5.3030    0.2936   -0.2544 C   0  0  0  0  0  0  0  0  0 20  0  0
   -6.2071    0.2137   -0.8359 H   0  0  0  0  0  0  0  0  0 26  0  0
   -4.5910   -0.8560    0.0441 C   0  0  0  0  0  0  0  0  0 21  0  0
   -4.9114   -1.8286   -0.2900 H   0  0  0  0  0  0  0  0  0 25  0  0
   -3.4339   -0.7243    0.7953 C   0  0  0  0  0  0  0  0  0 22  0  0
   -2.4547   -1.7314    1.2812 C   0  0  0  0  0  0  0  0  0 23  0  0
   -2.4650   -2.9213    1.1219 O   0  0  0  0  0  0  0  0  0 24  0  0
   -0.5271   -2.7083    2.5915 H   0  0  0  0  0  0  0  0  0 29  0  0
   -0.2335   -1.2645    3.6197 H   0  0  0  0  0  0  0  0  0 30  0  0
    0.7962    0.5557    2.4427 H   0  0  0  0  0  0  0  0  0 31  0  0
    3.8254   -0.1029    1.3251 C   0  0  0  0  0  0  0  0  0 32  0  0
    3.8512   -0.5340    2.3267 H   0  0  0  0  0  0  0  0  0 33  0  0
    4.3604   -1.1174    0.3128 C   0  0  0  0  0  0  0  0  0 34  0  0
    5.4452   -0.9767   -0.1663 O   0  0  0  0  0  0  0  0  0 35  0  0
    3.6447   -2.1259   -0.0489 O   0  0  0  0  0  0  0  0  0 36  0  0
    2.7626   -2.2039    0.3750 H   0  0  0  0  0  0  0  0  0 37  0  0
    4.5300    0.7282    1.3062 H   0  0  0  0  0  0  0  0  0 38  0  0
    2.4706    1.5655    1.4179 H   0  0  0  0  0  0  0  0  0 39  0  0
    2.8718    0.7828   -1.4018 C   0  0  0  0  0  0  0  0  0  5  0  0
    3.9210    0.8511   -1.1769 H   0  0  0  0  0  0  0  0  0  8  0  0
    2.4355    0.9030   -2.7102 C   0  0  0  0  0  0  0  0  0  6  0  0
    3.1656    1.0265   -3.4958 H   0  0  0  0  0  0  0  0  0  7  0  0
    0.5434   -0.0591   -4.8749 H   0  0  0  0  0  0  0  0  0 42  0  0
   -0.3240    1.4385   -4.5247 H   0  0  0  0  0  0  0  0  0 43  0  0
    1.3576    1.4893   -5.0691 H   0  0  0  0  0  0  0  0  0 44  0  0
  1  2  1  0
  2  3  4  0
  3  4  1  0
  3  5  4  0
  5  6  1  0
  5  7  4  0
  7  8  1  0
  8  9  1  0
  9 10  1  0
 10 11  2  0
 10 12  1  0
 12 13  1  0
 13 14  1  0
 14 15  2  0
 14 16  1  0
 16 17  4  0
 17 18  1  0
 17 19  4  0
 19 20  1  0
 19 21  4  0
 21 22  1  0
 21 23  4  0
 23 24  1  0
 23 25  4  0
 25 26  1  0
 26 27  2  0
 12 28  1  0
 12 29  1  0
  9 30  1  0
  8 31  1  0
 31 32  1  0
 31 33  1  0
 33 34  2  0
 33 35  1  0
 35 36  1  0
 31 37  1  0
  8 38  1  1
  7 39  4  0
 39 40  1  0
 39 41  4  0
 41 42  1  0
  1 43  1  0
  1 44  1  0
  1 45  1  0
 41  2  4  0
 26 13  1  0
 25 16  4  0
M  END
>  <sample_id>  (206)
train::Cc1ccc(C(CC(=O)O)NC(=O)CN2C(=O)c3ccccc3C2=O)cc1__gen0001

>  <partition>  (206)
BAT_EXTERNAL_CONFIRM

>  <method>  (206)
BA_seed193

>  <candidate>  (206)
primary

$$$$
train::Cc1ccc(C(CC(=O)O)NC(=O)CN2C(=O)c3ccccc3C2=O)cc1__gen0002
     RDKit          3D

 45 47  0  0  0  0  0  0  0  0999 V2000
    2.2230   -2.9104   -0.2084 C   0  0  0  0  0  0  0  0  0  0  0  0
    1.7214   -1.5635    0.2001 C   0  0  0  0  0  0  0  0  0  1  0  0
    1.9075   -0.4532   -0.6278 C   0  0  0  0  0  0  0  0  0  2  0  0
    2.4225   -0.5912   -1.5713 H   0  0  0  0  0  0  0  0  0 41  0  0
    1.5091    0.7987   -0.2297 C   0  0  0  0  0  0  0  0  0  3  0  0
    1.6816    1.6476   -0.8771 H   0  0  0  0  0  0  0  0  0 40  0  0
    0.8679    0.9946    0.9912 C   0  0  0  0  0  0  0  0  0  4  0  0
    0.3207    2.3764    1.2900 C   0  0  1  0  0  0  0  0  0  9  0  0
   -0.9245    2.5055    0.5363 N   0  0  0  0  0  0  0  0  0 10  0  0
   -0.9103    2.8655   -0.7539 C   0  0  0  0  0  0  0  0  0 11  0  0
   -0.0518    3.5388   -1.2671 O   0  0  0  0  0  0  0  0  0 12  0  0
   -2.1160    2.3016   -1.5254 C   0  0  0  0  0  0  0  0  0 13  0  0
   -1.9277    0.8776   -1.6459 N   0  0  0  0  0  0  0  0  0 14  0  0
   -2.1522   -0.0312   -0.6196 C   0  0  0  0  0  0  0  0  0 15  0  0
   -2.6598    0.2474    0.4518 O   0  0  0  0  0  0  0  0  0 16  0  0
   -1.6598   -1.3276   -1.1039 C   0  0  0  0  0  0  0  0  0 17  0  0
   -1.6327   -2.5712   -0.4959 C   0  0  0  0  0  0  0  0  0 18  0  0
   -2.0552   -2.7052    0.4966 H   0  0  0  0  0  0  0  0  0 28  0  0
   -1.0858   -3.6280   -1.2102 C   0  0  0  0  0  0  0  0  0 19  0  0
   -1.0631   -4.6046   -0.7581 H   0  0  0  0  0  0  0  0  0 27  0  0
   -0.5592   -3.4418   -2.4741 C   0  0  0  0  0  0  0  0  0 20  0  0
   -0.1269   -4.2746   -3.0054 H   0  0  0  0  0  0  0  0  0 26  0  0
   -0.5752   -2.1963   -3.0812 C   0  0  0  0  0  0  0  0  0 21  0  0
   -0.1645   -2.0340   -4.0670 H   0  0  0  0  0  0  0  0  0 25  0  0
   -1.1376   -1.1427   -2.3845 C   0  0  0  0  0  0  0  0  0 22  0  0
   -1.2772    0.2913   -2.7332 C   0  0  0  0  0  0  0  0  0 23  0  0
   -0.9555    0.8668   -3.7367 O   0  0  0  0  0  0  0  0  0 24  0  0
   -3.0534    2.4974   -0.9987 H   0  0  0  0  0  0  0  0  0 29  0  0
   -2.1435    2.7267   -2.5333 H   0  0  0  0  0  0  0  0  0 30  0  0
   -1.6902    1.9214    0.8766 H   0  0  0  0  0  0  0  0  0 31  0  0
    0.0739    2.6728    2.7738 C   0  0  0  0  0  0  0  0  0 32  0  0
   -0.3304    3.6783    2.8948 H   0  0  0  0  0  0  0  0  0 33  0  0
    1.3779    2.5786    3.5522 C   0  0  0  0  0  0  0  0  0 34  0  0
    2.2849    3.3714    3.4454 O   0  0  0  0  0  0  0  0  0 35  0  0
    1.3942    1.5375    4.3597 O   0  0  0  0  0  0  0  0  0 36  0  0
    2.2436    1.4971    4.8357 H   0  0  0  0  0  0  0  0  0 37  0  0
   -0.6408    1.9500    3.1869 H   0  0  0  0  0  0  0  0  0 38  0  0
    1.0124    3.1311    0.9035 H   0  0  0  0  0  0  0  0  0 39  0  0
    0.6503   -0.0960    1.8095 C   0  0  0  0  0  0  0  0  0  5  0  0
    0.1429    0.0149    2.7467 H   0  0  0  0  0  0  0  0  0  8  0  0
    1.0692   -1.3549    1.4184 C   0  0  0  0  0  0  0  0  0  6  0  0
    0.9060   -2.2121    2.0685 H   0  0  0  0  0  0  0  0  0  7  0  0
    1.9847   -3.1171   -1.2506 H   0  0  0  0  0  0  0  0  0 42  0  0
    3.3146   -2.9424   -0.0913 H   0  0  0  0  0  0  0  0  0 43  0  0
    1.7848   -3.6912    0.4125 H   0  0  0  0  0  0  0  0  0 44  0  0
  1  2  1  0
  2  3  4  0
  3  4  1  0
  3  5  4  0
  5  6  1  0
  5  7  4  0
  7  8  1  0
  8  9  1  0
  9 10  1  0
 10 11  2  0
 10 12  1  0
 12 13  1  0
 13 14  1  0
 14 15  2  0
 14 16  1  0
 16 17  4  0
 17 18  1  0
 17 19  4  0
 19 20  1  0
 19 21  4  0
 21 22  1  0
 21 23  4  0
 23 24  1  0
 23 25  4  0
 25 26  1  0
 26 27  2  0
 12 28  1  0
 12 29  1  0
  9 30  1  0
  8 31  1  0
 31 32  1  0
 31 33  1  0
 33 34  2  0
 33 35  1  0
 35 36  1  0
 31 37  1  0
  8 38  1  6
  7 39  4  0
 39 40  1  0
 39 41  4  0
 41 42  1  0
  1 43  1  0
  1 44  1  0
  1 45  1  0
 41  2  4  0
 26 13  1  0
 25 16  4  0
M  END
>  <sample_id>  (207)
train::Cc1ccc(C(CC(=O)O)NC(=O)CN2C(=O)c3ccccc3C2=O)cc1__gen0002

>  <partition>  (207)
BAT_EXTERNAL_CONFIRM

>  <method>  (207)
BA_seed193

>  <candidate>  (207)
primary

$$$$
train::CCNC(=O)c1sccc1-n1cccc1__gen0000
     RDKit          3D

 27 28  0  0  0  0  0  0  0  0999 V2000
   -1.4804    2.5591   -1.4056 C   0  0  0  0  0  0  0  0  0  0  0  0
   -2.0523    3.4100   -1.7505 H   0  0  0  0  0  0  0  0  0  1  0  0
   -0.6702    2.9086   -0.7695 H   0  0  0  0  0  0  0  0  0  2  0  0
   -2.3640    1.5837   -0.6547 C   0  0  0  0  0  0  0  0  0  3  0  0
   -1.6197    0.4407   -0.1807 N   0  0  0  0  0  0  0  0  0  4  0  0
   -1.6092    0.0551    1.1126 C   0  0  0  0  0  0  0  0  0  5  0  0
   -2.2620    0.6103    1.9837 O   0  0  0  0  0  0  0  0  0  6  0  0
   -0.7383   -1.1004    1.4015 C   0  0  0  0  0  0  0  0  0  7  0  0
    0.5032   -1.4609    0.9165 C   0  0  0  0  0  0  0  0  0  8  0  0
    1.2713   -0.6457    0.0781 N   0  0  0  0  0  0  0  0  0  9  0  0
    2.1063   -1.1100   -0.8940 C   0  0  0  0  0  0  0  0  0 10  0  0
    2.1691   -2.1527   -1.1226 H   0  0  0  0  0  0  0  0  0 17  0  0
    2.7027   -0.0269   -1.4936 C   0  0  0  0  0  0  0  0  0 11  0  0
    3.4043   -0.0609   -2.3045 H   0  0  0  0  0  0  0  0  0 16  0  0
    2.2367    1.1283   -0.8367 C   0  0  0  0  0  0  0  0  0 12  0  0
    2.5411    2.1347   -1.0418 H   0  0  0  0  0  0  0  0  0 15  0  0
    1.3594    0.7162    0.1328 C   0  0  0  0  0  0  0  0  0 13  0  0
    0.8123    1.2764    0.8665 H   0  0  0  0  0  0  0  0  0 14  0  0
    0.9550   -2.6841    1.4180 C   0  0  0  0  0  0  0  0  0 18  0  0
    1.9104   -3.1198    1.1683 H   0  0  0  0  0  0  0  0  0 22  0  0
    0.0718   -3.2693    2.2728 C   0  0  0  0  0  0  0  0  0 19  0  0
    0.1586   -4.1961    2.8000 H   0  0  0  0  0  0  0  0  0 21  0  0
   -1.3394   -2.3140    2.4953 S   0  0  0  0  0  0  0  0  0 20  0  0
   -1.0624   -0.0609   -0.8531 H   0  0  0  0  0  0  0  0  0 23  0  0
   -3.1918    1.2577   -1.3007 H   0  0  0  0  0  0  0  0  0 24  0  0
   -2.7939    2.0541    0.2321 H   0  0  0  0  0  0  0  0  0 25  0  0
   -1.0185    2.0668   -2.2700 H   0  0  0  0  0  0  0  0  0 26  0  0
  1  2  1  0
  1  3  1  0
  1  4  1  0
  4  5  1  0
  5  6  1  0
  6  7  2  0
  6  8  1  0
  8  9  4  0
  9 10  1  0
 10 11  4  0
 11 12  1  0
 11 13  4  0
 13 14  1  0
 13 15  4  0
 15 16  1  0
 15 17  4  0
 17 18  1  0
  9 19  4  0
 19 20  1  0
 19 21  4  0
 21 22  1  0
 21 23  4  0
  5 24  1  0
  4 25  1  0
  4 26  1  0
  1 27  1  0
 23  8  4  0
 17 10  4  0
M  END
>  <sample_id>  (208)
train::CCNC(=O)c1sccc1-n1cccc1__gen0000

>  <partition>  (208)
BAT_EXTERNAL_CONFIRM

>  <method>  (208)
BA_seed193

>  <candidate>  (208)
primary

$$$$
train::CCNC(=O)c1sccc1-n1cccc1__gen0001
     RDKit          3D

 27 28  0  0  0  0  0  0  0  0999 V2000
    2.5712   -2.9311   -2.2171 C   0  0  0  0  0  0  0  0  0  0  0  0
    3.4971   -3.4955   -2.1693 H   0  0  0  0  0  0  0  0  0  1  0  0
    2.7480   -2.0262   -2.7936 H   0  0  0  0  0  0  0  0  0  2  0  0
    2.0907   -2.5957   -0.8082 C   0  0  0  0  0  0  0  0  0  3  0  0
    0.8423   -1.8530   -0.8404 N   0  0  0  0  0  0  0  0  0  4  0  0
    0.7589   -0.5326   -0.5422 C   0  0  0  0  0  0  0  0  0  5  0  0
    1.7291    0.0877   -0.1344 O   0  0  0  0  0  0  0  0  0  6  0  0
   -0.5809    0.0342   -0.7339 C   0  0  0  0  0  0  0  0  0  7  0  0
   -1.2959    0.9737   -0.0021 C   0  0  0  0  0  0  0  0  0  8  0  0
   -0.9004    1.5731    1.2023 N   0  0  0  0  0  0  0  0  0  9  0  0
    0.3383    1.9733    1.5856 C   0  0  0  0  0  0  0  0  0 10  0  0
    1.1897    1.8180    0.9530 H   0  0  0  0  0  0  0  0  0 17  0  0
    0.2511    2.5411    2.8254 C   0  0  0  0  0  0  0  0  0 11  0  0
    1.0626    2.9541    3.3925 H   0  0  0  0  0  0  0  0  0 16  0  0
   -1.1023    2.4654    3.2220 C   0  0  0  0  0  0  0  0  0 12  0  0
   -1.5183    2.8239    4.1444 H   0  0  0  0  0  0  0  0  0 15  0  0
   -1.7782    1.8686    2.1966 C   0  0  0  0  0  0  0  0  0 13  0  0
   -2.8189    1.6185    2.1332 H   0  0  0  0  0  0  0  0  0 14  0  0
   -2.5398    1.2710   -0.5650 C   0  0  0  0  0  0  0  0  0 18  0  0
   -3.2189    1.9884   -0.1476 H   0  0  0  0  0  0  0  0  0 22  0  0
   -2.7979    0.5881   -1.7111 C   0  0  0  0  0  0  0  0  0 19  0  0
   -3.6662    0.6341   -2.3461 H   0  0  0  0  0  0  0  0  0 21  0  0
   -1.5085   -0.4605   -2.1204 S   0  0  0  0  0  0  0  0  0 20  0  0
    0.0431   -2.3251   -1.2373 H   0  0  0  0  0  0  0  0  0 23  0  0
    1.9524   -3.5133   -0.2266 H   0  0  0  0  0  0  0  0  0 24  0  0
    2.8217   -1.9493   -0.3120 H   0  0  0  0  0  0  0  0  0 25  0  0
    1.8299   -3.5312   -2.7477 H   0  0  0  0  0  0  0  0  0 26  0  0
  1  2  1  0
  1  3  1  0
  1  4  1  0
  4  5  1  0
  5  6  1  0
  6  7  2  0
  6  8  1  0
  8  9  4  0
  9 10  1  0
 10 11  4  0
 11 12  1  0
 11 13  4  0
 13 14  1  0
 13 15  4  0
 15 16  1  0
 15 17  4  0
 17 18  1  0
  9 19  4  0
 19 20  1  0
 19 21  4  0
 21 22  1  0
 21 23  4  0
  5 24  1  0
  4 25  1  0
  4 26  1  0
  1 27  1  0
 23  8  4  0
 17 10  4  0
M  END
>  <sample_id>  (209)
train::CCNC(=O)c1sccc1-n1cccc1__gen0001

>  <partition>  (209)
BAT_EXTERNAL_CONFIRM

>  <method>  (209)
BA_seed193

>  <candidate>  (209)
primary

$$$$
train::CCNC(=O)c1sccc1-n1cccc1__gen0002
     RDKit          3D

 27 28  0  0  0  0  0  0  0  0999 V2000
    3.0121    2.0430   -0.4642 C   0  0  0  0  0  0  0  0  0  0  0  0
    3.5404    2.9624   -0.6983 H   0  0  0  0  0  0  0  0  0  1  0  0
    2.9602    1.4398   -1.3707 H   0  0  0  0  0  0  0  0  0  2  0  0
    1.6175    2.3546    0.0359 C   0  0  0  0  0  0  0  0  0  3  0  0
    0.8791    1.1489    0.3619 N   0  0  0  0  0  0  0  0  0  4  0  0
    0.4237    0.8673    1.6106 C   0  0  0  0  0  0  0  0  0  5  0  0
    0.5685    1.6297    2.5519 O   0  0  0  0  0  0  0  0  0  6  0  0
   -0.2660   -0.4169    1.7390 C   0  0  0  0  0  0  0  0  0  7  0  0
   -0.9291   -1.2351    0.8344 C   0  0  0  0  0  0  0  0  0  8  0  0
   -1.1499   -0.9272   -0.4982 N   0  0  0  0  0  0  0  0  0  9  0  0
   -1.0033   -1.8290   -1.5374 C   0  0  0  0  0  0  0  0  0 10  0  0
   -0.6699   -2.8253   -1.3481 H   0  0  0  0  0  0  0  0  0 17  0  0
   -1.3566   -1.2009   -2.7014 C   0  0  0  0  0  0  0  0  0 11  0  0
   -1.3565   -1.6319   -3.6792 H   0  0  0  0  0  0  0  0  0 16  0  0
   -1.7214    0.1249   -2.3664 C   0  0  0  0  0  0  0  0  0 12  0  0
   -2.0765    0.8754   -3.0494 H   0  0  0  0  0  0  0  0  0 15  0  0
   -1.5973    0.2500   -1.0118 C   0  0  0  0  0  0  0  0  0 13  0  0
   -1.7898    1.0825   -0.3680 H   0  0  0  0  0  0  0  0  0 14  0  0
   -1.4010   -2.4245    1.4077 C   0  0  0  0  0  0  0  0  0 18  0  0
   -1.9289   -3.1798    0.8638 H   0  0  0  0  0  0  0  0  0 22  0  0
   -1.1378   -2.4988    2.7397 C   0  0  0  0  0  0  0  0  0 19  0  0
   -1.3942   -3.2831    3.4310 H   0  0  0  0  0  0  0  0  0 21  0  0
   -0.2871   -1.1348    3.3284 S   0  0  0  0  0  0  0  0  0 20  0  0
    0.7823    0.4549   -0.3693 H   0  0  0  0  0  0  0  0  0 23  0  0
    1.0528    2.9289   -0.7018 H   0  0  0  0  0  0  0  0  0 24  0  0
    1.6590    2.9287    0.9669 H   0  0  0  0  0  0  0  0  0 25  0  0
    3.5694    1.4962    0.2931 H   0  0  0  0  0  0  0  0  0 26  0  0
  1  2  1  0
  1  3  1  0
  1  4  1  0
  4  5  1  0
  5  6  1  0
  6  7  2  0
  6  8  1  0
  8  9  4  0
  9 10  1  0
 10 11  4  0
 11 12  1  0
 11 13  4  0
 13 14  1  0
 13 15  4  0
 15 16  1  0
 15 17  4  0
 17 18  1  0
  9 19  4  0
 19 20  1  0
 19 21  4  0
 21 22  1  0
 21 23  4  0
  5 24  1  0
  4 25  1  0
  4 26  1  0
  1 27  1  0
 23  8  4  0
 17 10  4  0
M  END
>  <sample_id>  (210)
train::CCNC(=O)c1sccc1-n1cccc1__gen0002

>  <partition>  (210)
BAT_EXTERNAL_CONFIRM

>  <method>  (210)
BA_seed193

>  <candidate>  (210)
primary

$$$$
train::CN(C)C(=O)c1ccc(NC(=O)c2sccc2-c2ccccc2)cc1__gen0000
     RDKit          3D

 43 45  0  0  0  0  0  0  0  0999 V2000
   -2.0590    1.7486    1.7844 C   0  0  0  0  0  0  0  0  0  0  0  0
   -3.2446    1.5806    1.0170 N   0  0  0  0  0  0  0  0  0  1  0  0
   -3.3427    0.8042   -0.1310 C   0  0  0  0  0  0  0  0  0  2  0  0
   -4.4143    0.5971   -0.6637 O   0  0  0  0  0  0  0  0  0  3  0  0
   -2.0686    0.2625   -0.6632 C   0  0  0  0  0  0  0  0  0  4  0  0
   -1.0740    1.1048   -1.1655 C   0  0  0  0  0  0  0  0  0  5  0  0
   -1.1900    2.1775   -1.0980 H   0  0  0  0  0  0  0  0  0 35  0  0
    0.0391    0.5823   -1.7877 C   0  0  0  0  0  0  0  0  0  6  0  0
    0.7817    1.2345   -2.2059 H   0  0  0  0  0  0  0  0  0 34  0  0
    0.1817   -0.7970   -1.9167 C   0  0  0  0  0  0  0  0  0  7  0  0
    1.2851   -1.3706   -2.5729 N   0  0  0  0  0  0  0  0  0 12  0  0
    2.5744   -0.9527   -2.6413 C   0  0  0  0  0  0  0  0  0 13  0  0
    3.3625   -1.4805   -3.4154 O   0  0  0  0  0  0  0  0  0 14  0  0
    3.0092    0.0995   -1.6996 C   0  0  0  0  0  0  0  0  0 15  0  0
    2.7776    0.1945   -0.3348 C   0  0  0  0  0  0  0  0  0 16  0  0
    2.0279   -0.7760    0.4450 C   0  0  0  0  0  0  0  0  0 22  0  0
    1.1231   -0.3476    1.4212 C   0  0  0  0  0  0  0  0  0 23  0  0
    0.9869    0.7100    1.5799 H   0  0  0  0  0  0  0  0  0 32  0  0
    0.4172   -1.2661    2.1720 C   0  0  0  0  0  0  0  0  0 24  0  0
   -0.2861   -0.9286    2.9144 H   0  0  0  0  0  0  0  0  0 31  0  0
    0.5816   -2.6242    1.9495 C   0  0  0  0  0  0  0  0  0 25  0  0
    0.0172   -3.3390    2.5246 H   0  0  0  0  0  0  0  0  0 30  0  0
    1.4873   -3.0631    0.9971 C   0  0  0  0  0  0  0  0  0 26  0  0
    1.6282   -4.1217    0.8274 H   0  0  0  0  0  0  0  0  0 29  0  0
    2.2001   -2.1499    0.2414 C   0  0  0  0  0  0  0  0  0 27  0  0
    2.9193   -2.4845   -0.4881 H   0  0  0  0  0  0  0  0  0 28  0  0
    3.3824    1.3551    0.1992 C   0  0  0  0  0  0  0  0  0 17  0  0
    3.3320    1.6088    1.2472 H   0  0  0  0  0  0  0  0  0 21  0  0
    4.0554    2.0884   -0.7258 C   0  0  0  0  0  0  0  0  0 18  0  0
    4.5959    3.0023   -0.5812 H   0  0  0  0  0  0  0  0  0 20  0  0
    3.9644    1.4013   -2.2986 S   0  0  0  0  0  0  0  0  0 19  0  0
    1.0882   -2.2300   -3.0830 H   0  0  0  0  0  0  0  0  0 33  0  0
   -0.8289   -1.6365   -1.4481 C   0  0  0  0  0  0  0  0  0  8  0  0
   -0.7313   -2.7034   -1.5806 H   0  0  0  0  0  0  0  0  0 11  0  0
   -1.9398   -1.1110   -0.8259 C   0  0  0  0  0  0  0  0  0  9  0  0
   -2.7187   -1.7623   -0.4777 H   0  0  0  0  0  0  0  0  0 10  0  0
   -4.4425    2.1955    1.5326 C   0  0  0  0  0  0  0  0  0 36  0  0
   -4.7180    1.7365    2.4906 H   0  0  0  0  0  0  0  0  0 37  0  0
   -5.2521    2.0256    0.8287 H   0  0  0  0  0  0  0  0  0 38  0  0
   -4.2867    3.2676    1.6744 H   0  0  0  0  0  0  0  0  0 39  0  0
   -1.7042    2.7825    1.7370 H   0  0  0  0  0  0  0  0  0 40  0  0
   -2.2573    1.4860    2.8226 H   0  0  0  0  0  0  0  0  0 41  0  0
   -1.2595    1.0992    1.3989 H   0  0  0  0  0  0  0  0  0 42  0  0
  1  2  1  0
  2  3  1  0
  3  4  2  0
  3  5  1  0
  5  6  4  0
  6  7  1  0
  6  8  4  0
  8  9  1  0
  8 10  4  0
 10 11  1  0
 11 12  1  0
 12 13  2  0
 12 14  1  0
 14 15  4  0
 15 16  1  0
 16 17  4  0
 17 18  1  0
 17 19  4  0
 19 20  1  0
 19 21  4  0
 21 22  1  0
 21 23  4  0
 23 24  1  0
 23 25  4  0
 25 26  1  0
 15 27  4  0
 27 28  1  0
 27 29  4  0
 29 30  1  0
 29 31  4  0
 11 32  1  0
 10 33  4  0
 33 34  1  0
 33 35  4  0
 35 36  1  0
  2 37  1  0
 37 38  1  0
 37 39  1  0
 37 40  1  0
  1 41  1  0
  1 42  1  0
  1 43  1  0
 35  5  4  0
 31 14  4  0
 25 16  4  0
M  END
>  <sample_id>  (211)
train::CN(C)C(=O)c1ccc(NC(=O)c2sccc2-c2ccccc2)cc1__gen0000

>  <partition>  (211)
BAT_EXTERNAL_CONFIRM

>  <method>  (211)
BA_seed193

>  <candidate>  (211)
primary

$$$$
train::CN(C)C(=O)c1ccc(NC(=O)c2sccc2-c2ccccc2)cc1__gen0001
     RDKit          3D

 43 45  0  0  0  0  0  0  0  0999 V2000
   -4.1398   -0.0476   -3.3928 C   0  0  0  0  0  0  0  0  0  0  0  0
   -4.5055    1.0001   -2.4635 N   0  0  0  0  0  0  0  0  0  1  0  0
   -3.7228    1.4580   -1.4812 C   0  0  0  0  0  0  0  0  0  2  0  0
   -4.0119    2.4313   -0.8149 O   0  0  0  0  0  0  0  0  0  3  0  0
   -2.4336    0.7243   -1.1970 C   0  0  0  0  0  0  0  0  0  4  0  0
   -2.3940   -0.6408   -0.9337 C   0  0  0  0  0  0  0  0  0  5  0  0
   -3.3111   -1.2129   -0.9769 H   0  0  0  0  0  0  0  0  0 35  0  0
   -1.2226   -1.2661   -0.5925 C   0  0  0  0  0  0  0  0  0  6  0  0
   -1.1975   -2.3214   -0.3670 H   0  0  0  0  0  0  0  0  0 34  0  0
   -0.0516   -0.5187   -0.4926 C   0  0  0  0  0  0  0  0  0  7  0  0
    1.1692   -1.0906   -0.1107 N   0  0  0  0  0  0  0  0  0 12  0  0
    1.4314   -2.3446    0.3363 C   0  0  0  0  0  0  0  0  0 13  0  0
    0.6891   -3.3014    0.2536 O   0  0  0  0  0  0  0  0  0 14  0  0
    2.7649   -2.4795    0.9530 C   0  0  0  0  0  0  0  0  0 15  0  0
    3.5302   -1.5548    1.6518 C   0  0  0  0  0  0  0  0  0 16  0  0
    3.1021   -0.1899    1.9991 C   0  0  0  0  0  0  0  0  0 22  0  0
    1.8537    0.0436    2.5662 C   0  0  0  0  0  0  0  0  0 23  0  0
    1.1901   -0.7927    2.7570 H   0  0  0  0  0  0  0  0  0 32  0  0
    1.4575    1.3336    2.8797 C   0  0  0  0  0  0  0  0  0 24  0  0
    0.4807    1.4996    3.3069 H   0  0  0  0  0  0  0  0  0 31  0  0
    2.3112    2.4033    2.6413 C   0  0  0  0  0  0  0  0  0 25  0  0
    1.9942    3.3978    2.8856 H   0  0  0  0  0  0  0  0  0 30  0  0
    3.5785    2.1679    2.1215 C   0  0  0  0  0  0  0  0  0 26  0  0
    4.2459    2.9892    1.9323 H   0  0  0  0  0  0  0  0  0 29  0  0
    3.9641    0.8868    1.7858 C   0  0  0  0  0  0  0  0  0 27  0  0
    4.9415    0.6940    1.3592 H   0  0  0  0  0  0  0  0  0 28  0  0
    4.7653   -2.1013    2.0697 C   0  0  0  0  0  0  0  0  0 17  0  0
    5.5102   -1.5454    2.6092 H   0  0  0  0  0  0  0  0  0 21  0  0
    4.9170   -3.3991    1.7010 C   0  0  0  0  0  0  0  0  0 18  0  0
    5.7464   -4.0514    1.8832 H   0  0  0  0  0  0  0  0  0 20  0  0
    3.5581   -4.0080    0.8427 S   0  0  0  0  0  0  0  0  0 19  0  0
    1.9202   -0.4106   -0.0167 H   0  0  0  0  0  0  0  0  0 33  0  0
   -0.0784    0.8512   -0.7582 C   0  0  0  0  0  0  0  0  0  8  0  0
    0.8377    1.4190   -0.6719 H   0  0  0  0  0  0  0  0  0 11  0  0
   -1.2660    1.4603   -1.0941 C   0  0  0  0  0  0  0  0  0  9  0  0
   -1.2968    2.5261   -1.2743 H   0  0  0  0  0  0  0  0  0 10  0  0
   -5.7937    1.6124   -2.7026 C   0  0  0  0  0  0  0  0  0 36  0  0
   -5.9454    2.3977   -1.9631 H   0  0  0  0  0  0  0  0  0 37  0  0
   -6.5912    0.8762   -2.6128 H   0  0  0  0  0  0  0  0  0 38  0  0
   -5.8277    2.0651   -3.7069 H   0  0  0  0  0  0  0  0  0 39  0  0
   -4.6266   -0.9992   -3.1288 H   0  0  0  0  0  0  0  0  0 40  0  0
   -4.4834    0.2294   -4.3909 H   0  0  0  0  0  0  0  0  0 41  0  0
   -3.0599   -0.1911   -3.3921 H   0  0  0  0  0  0  0  0  0 42  0  0
  1  2  1  0
  2  3  1  0
  3  4  2  0
  3  5  1  0
  5  6  4  0
  6  7  1  0
  6  8  4  0
  8  9  1  0
  8 10  4  0
 10 11  1  0
 11 12  1  0
 12 13  2  0
 12 14  1  0
 14 15  4  0
 15 16  1  0
 16 17  4  0
 17 18  1  0
 17 19  4  0
 19 20  1  0
 19 21  4  0
 21 22  1  0
 21 23  4  0
 23 24  1  0
 23 25  4  0
 25 26  1  0
 15 27  4  0
 27 28  1  0
 27 29  4  0
 29 30  1  0
 29 31  4  0
 11 32  1  0
 10 33  4  0
 33 34  1  0
 33 35  4  0
 35 36  1  0
  2 37  1  0
 37 38  1  0
 37 39  1  0
 37 40  1  0
  1 41  1  0
  1 42  1  0
  1 43  1  0
 35  5  4  0
 31 14  4  0
 25 16  4  0
M  END
>  <sample_id>  (212)
train::CN(C)C(=O)c1ccc(NC(=O)c2sccc2-c2ccccc2)cc1__gen0001

>  <partition>  (212)
BAT_EXTERNAL_CONFIRM

>  <method>  (212)
BA_seed193

>  <candidate>  (212)
primary

$$$$
train::CN(C)C(=O)c1ccc(NC(=O)c2sccc2-c2ccccc2)cc1__gen0002
     RDKit          3D

 43 45  0  0  0  0  0  0  0  0999 V2000
    4.6977    5.0729    1.5905 C   0  0  0  0  0  0  0  0  0  0  0  0
    3.6192    4.1385    1.4647 N   0  0  0  0  0  0  0  0  0  1  0  0
    3.8070    2.8716    1.9312 C   0  0  0  0  0  0  0  0  0  2  0  0
    4.8306    2.5129    2.5019 O   0  0  0  0  0  0  0  0  0  3  0  0
    2.6803    1.9018    1.7293 C   0  0  0  0  0  0  0  0  0  4  0  0
    2.1528    1.2312    2.8234 C   0  0  0  0  0  0  0  0  0  5  0  0
    2.5393    1.4404    3.8140 H   0  0  0  0  0  0  0  0  0 35  0  0
    1.1638    0.2853    2.6535 C   0  0  0  0  0  0  0  0  0  6  0  0
    0.7509   -0.2345    3.5000 H   0  0  0  0  0  0  0  0  0 34  0  0
    0.6844   -0.0161    1.3666 C   0  0  0  0  0  0  0  0  0  7  0  0
   -0.3167   -0.9665    1.2764 N   0  0  0  0  0  0  0  0  0 12  0  0
   -0.9765   -1.4129    0.1537 C   0  0  0  0  0  0  0  0  0 13  0  0
   -0.7323   -1.0216   -0.9810 O   0  0  0  0  0  0  0  0  0 14  0  0
   -2.0098   -2.4225    0.4280 C   0  0  0  0  0  0  0  0  0 15  0  0
   -2.8032   -3.0745   -0.5125 C   0  0  0  0  0  0  0  0  0 16  0  0
   -2.8499   -2.8010   -1.9451 C   0  0  0  0  0  0  0  0  0 22  0  0
   -3.0385   -1.5122   -2.4417 C   0  0  0  0  0  0  0  0  0 23  0  0
   -3.1364   -0.6908   -1.7582 H   0  0  0  0  0  0  0  0  0 32  0  0
   -3.0972   -1.2962   -3.8037 C   0  0  0  0  0  0  0  0  0 24  0  0
   -3.2538   -0.2896   -4.1713 H   0  0  0  0  0  0  0  0  0 31  0  0
   -2.9921   -2.3555   -4.6940 C   0  0  0  0  0  0  0  0  0 25  0  0
   -3.0363   -2.1785   -5.7630 H   0  0  0  0  0  0  0  0  0 30  0  0
   -2.7976   -3.6452   -4.2075 C   0  0  0  0  0  0  0  0  0 26  0  0
   -2.7115   -4.4755   -4.9015 H   0  0  0  0  0  0  0  0  0 29  0  0
   -2.7417   -3.8700   -2.8447 C   0  0  0  0  0  0  0  0  0 27  0  0
   -2.5872   -4.8654   -2.4719 H   0  0  0  0  0  0  0  0  0 28  0  0
   -3.6195   -4.0529    0.0748 C   0  0  0  0  0  0  0  0  0 17  0  0
   -4.3230   -4.6557   -0.4806 H   0  0  0  0  0  0  0  0  0 21  0  0
   -3.4714   -4.1490    1.4410 C   0  0  0  0  0  0  0  0  0 18  0  0
   -3.9809   -4.7959    2.1246 H   0  0  0  0  0  0  0  0  0 20  0  0
   -2.3121   -3.0397    2.0119 S   0  0  0  0  0  0  0  0  0 19  0  0
   -0.6072   -1.3572    2.1603 H   0  0  0  0  0  0  0  0  0 33  0  0
    1.2225    0.6395    0.2693 C   0  0  0  0  0  0  0  0  0  8  0  0
    0.8726    0.3969   -0.7162 H   0  0  0  0  0  0  0  0  0 11  0  0
    2.2079    1.5935    0.4557 C   0  0  0  0  0  0  0  0  0  9  0  0
    2.6381    2.0787   -0.4020 H   0  0  0  0  0  0  0  0  0 10  0  0
    2.3880    4.6504    0.9540 C   0  0  0  0  0  0  0  0  0 36  0  0
    2.4625    4.8145   -0.1278 H   0  0  0  0  0  0  0  0  0 37  0  0
    2.1773    5.6073    1.4493 H   0  0  0  0  0  0  0  0  0 38  0  0
    1.5672    3.9732    1.1559 H   0  0  0  0  0  0  0  0  0 39  0  0
    4.4331    5.8901    2.2801 H   0  0  0  0  0  0  0  0  0 40  0  0
    4.9275    5.5244    0.6234 H   0  0  0  0  0  0  0  0  0 41  0  0
    5.5722    4.5556    1.9893 H   0  0  0  0  0  0  0  0  0 42  0  0
  1  2  1  0
  2  3  1  0
  3  4  2  0
  3  5  1  0
  5  6  4  0
  6  7  1  0
  6  8  4  0
  8  9  1  0
  8 10  4  0
 10 11  1  0
 11 12  1  0
 12 13  2  0
 12 14  1  0
 14 15  4  0
 15 16  1  0
 16 17  4  0
 17 18  1  0
 17 19  4  0
 19 20  1  0
 19 21  4  0
 21 22  1  0
 21 23  4  0
 23 24  1  0
 23 25  4  0
 25 26  1  0
 15 27  4  0
 27 28  1  0
 27 29  4  0
 29 30  1  0
 29 31  4  0
 11 32  1  0
 10 33  4  0
 33 34  1  0
 33 35  4  0
 35 36  1  0
  2 37  1  0
 37 38  1  0
 37 39  1  0
 37 40  1  0
  1 41  1  0
  1 42  1  0
  1 43  1  0
 35  5  4  0
 31 14  4  0
 25 16  4  0
M  END
>  <sample_id>  (213)
train::CN(C)C(=O)c1ccc(NC(=O)c2sccc2-c2ccccc2)cc1__gen0002

>  <partition>  (213)
BAT_EXTERNAL_CONFIRM

>  <method>  (213)
BA_seed193

>  <candidate>  (213)
primary

$$$$
train::CCOC(=O)Cc1csc(NC(=O)c2c(O)c3ccccc3n(CC(C)C)c2=O)n1__gen0000
     RDKit          3D

 53 55  0  0  0  0  0  0  0  0999 V2000
   -5.8506    0.7029   -4.5075 C   0  0  0  0  0  0  0  0  0  0  0  0
   -6.1951   -0.5019   -3.6616 C   0  0  0  0  0  0  0  0  0  1  0  0
   -5.7144   -1.3918   -4.0279 H   0  0  0  0  0  0  0  0  0  2  0  0
   -7.2871   -0.6329   -3.6616 H   0  0  0  0  0  0  0  0  0  3  0  0
   -5.7563   -0.3421   -2.3148 O   0  0  0  0  0  0  0  0  0  4  0  0
   -6.5034    0.3654   -1.5023 C   0  0  0  0  0  0  0  0  0  5  0  0
   -7.5735    0.8374   -1.7822 O   0  0  0  0  0  0  0  0  0  6  0  0
   -5.8471    0.4959   -0.1383 C   0  0  0  0  0  0  0  0  0  7  0  0
   -4.5319    1.2019   -0.2422 C   0  0  0  0  0  0  0  0  0  8  0  0
   -4.3417    2.4277   -0.8075 C   0  0  0  0  0  0  0  0  0  9  0  0
   -5.0715    3.1113   -1.2153 H   0  0  0  0  0  0  0  0  0 47  0  0
   -2.6645    2.8713   -0.7656 S   0  0  0  0  0  0  0  0  0 10  0  0
   -2.3657    1.3356   -0.0125 C   0  0  0  0  0  0  0  0  0 11  0  0
   -1.1012    0.9339    0.3545 N   0  0  0  0  0  0  0  0  0 13  0  0
   -0.0316    1.7290    0.1614 C   0  0  0  0  0  0  0  0  0 14  0  0
   -0.1498    2.8333   -0.3617 O   0  0  0  0  0  0  0  0  0 15  0  0
    1.2754    1.2262    0.6616 C   0  0  0  0  0  0  0  0  0 16  0  0
    2.3895    2.0389    0.5128 C   0  0  0  0  0  0  0  0  0 17  0  0
    2.3208    3.2227   -0.0281 O   0  0  0  0  0  0  0  0  0 18  0  0
    1.3826    3.4151   -0.2907 H   0  0  0  0  0  0  0  0  0 19  0  0
    3.6501    1.5725    1.0037 C   0  0  0  0  0  0  0  0  0 20  0  0
    4.7724    2.4024    0.9068 C   0  0  0  0  0  0  0  0  0 21  0  0
    4.6492    3.3851    0.4849 H   0  0  0  0  0  0  0  0  0 45  0  0
    5.9999    1.9627    1.3519 C   0  0  0  0  0  0  0  0  0 22  0  0
    6.8725    2.5916    1.2823 H   0  0  0  0  0  0  0  0  0 44  0  0
    6.1127    0.6888    1.8942 C   0  0  0  0  0  0  0  0  0 23  0  0
    7.0687    0.3270    2.2461 H   0  0  0  0  0  0  0  0  0 43  0  0
    5.0120   -0.1381    1.9992 C   0  0  0  0  0  0  0  0  0 24  0  0
    5.1566   -1.1103    2.4183 H   0  0  0  0  0  0  0  0  0 42  0  0
    3.7617    0.2833    1.5508 C   0  0  0  0  0  0  0  0  0 25  0  0
    2.6274   -0.4970    1.6621 N   0  0  0  0  0  0  0  0  0 26  0  0
    2.6883   -1.8639    2.1835 C   0  0  0  0  0  0  0  0  0 29  0  0
    1.7563   -2.0013    2.7500 H   0  0  0  0  0  0  0  0  0 30  0  0
    3.5253   -1.9568    2.8721 H   0  0  0  0  0  0  0  0  0 31  0  0
    2.7080   -2.9173    1.0877 C   0  0  2  0  0  0  0  0  0 32  0  0
    2.7789   -4.2954    1.7408 C   0  0  0  0  0  0  0  0  0 33  0  0
    3.7073   -4.4074    2.2964 H   0  0  0  0  0  0  0  0  0 34  0  0
    2.7560   -5.0809    0.9995 H   0  0  0  0  0  0  0  0  0 35  0  0
    1.9536   -4.4479    2.4257 H   0  0  0  0  0  0  0  0  0 36  0  0
    3.8732   -2.7283    0.1131 C   0  0  0  0  0  0  0  0  0 37  0  0
    3.7946   -1.7612   -0.3741 H   0  0  0  0  0  0  0  0  0 38  0  0
    3.8368   -3.5036   -0.6434 H   0  0  0  0  0  0  0  0  0 39  0  0
    4.8145   -2.7759    0.6382 H   0  0  0  0  0  0  0  0  0 40  0  0
    1.7648   -2.8377    0.5374 H   0  0  0  0  0  0  0  0  0 41  0  0
    1.3613   -0.0981    1.2439 C   0  0  0  0  0  0  0  0  0 27  0  0
    0.4079   -0.8346    1.3813 O   0  0  0  0  0  0  0  0  0 28  0  0
   -0.9443    0.0297    0.7891 H   0  0  0  0  0  0  0  0  0 46  0  0
   -3.4047    0.6028    0.1745 N   0  0  0  0  0  0  0  0  0 12  0  0
   -5.6592   -0.4944    0.2643 H   0  0  0  0  0  0  0  0  0 48  0  0
   -6.5222    1.0477    0.5133 H   0  0  0  0  0  0  0  0  0 49  0  0
   -4.7761    0.8393   -4.4861 H   0  0  0  0  0  0  0  0  0 50  0  0
   -6.3453    1.5966   -4.1377 H   0  0  0  0  0  0  0  0  0 51  0  0
   -6.1415    0.5409   -5.5403 H   0  0  0  0  0  0  0  0  0 52  0  0
  1  2  1  0
  2  3  1  0
  2  4  1  0
  2  5  1  0
  5  6  1  0
  6  7  2  0
  6  8  1  0
  8  9  1  0
  9 10  4  0
 10 11  1  0
 10 12  4  0
 12 13  4  0
 13 14  1  0
 14 15  1  0
 15 16  2  0
 15 17  1  0
 17 18  4  0
 18 19  1  0
 19 20  1  0
 18 21  4  0
 21 22  4  0
 22 23  1  0
 22 24  4  0
 24 25  1  0
 24 26  4  0
 26 27  1  0
 26 28  4  0
 28 29  1  0
 28 30  4  0
 30 31  4  0
 31 32  1  0
 32 33  1  0
 32 34  1  0
 32 35  1  0
 35 36  1  0
 36 37  1  0
 36 38  1  0
 36 39  1  0
 35 40  1  0
 40 41  1  0
 40 42  1  0
 40 43  1  0
 35 44  1  6
 31 45  4  0
 45 46  2  0
 14 47  1  0
 13 48  4  0
  8 49  1  0
  8 50  1  0
  1 51  1  0
  1 52  1  0
  1 53  1  0
 48  9  4  0
 45 17  4  0
 30 21  4  0
M  END
>  <sample_id>  (214)
train::CCOC(=O)Cc1csc(NC(=O)c2c(O)c3ccccc3n(CC(C)C)c2=O)n1__gen0000

>  <partition>  (214)
BAT_EXTERNAL_CONFIRM

>  <method>  (214)
BA_seed193

>  <candidate>  (214)
primary

$$$$
train::CCOC(=O)Cc1csc(NC(=O)c2c(O)c3ccccc3n(CC(C)C)c2=O)n1__gen0001
     RDKit          3D

 53 55  0  0  0  0  0  0  0  0999 V2000
    4.6694    3.7987    5.9376 C   0  0  0  0  0  0  0  0  0  0  0  0
    4.3864    3.0033    4.6826 C   0  0  0  0  0  0  0  0  0  1  0  0
    5.2272    3.0823    3.9837 H   0  0  0  0  0  0  0  0  0  2  0  0
    4.1854    1.9565    4.9028 H   0  0  0  0  0  0  0  0  0  3  0  0
    3.1928    3.4735    4.0418 O   0  0  0  0  0  0  0  0  0  4  0  0
    3.3157    4.4835    3.1878 C   0  0  0  0  0  0  0  0  0  5  0  0
    4.3396    5.0681    2.9561 O   0  0  0  0  0  0  0  0  0  6  0  0
    1.9855    4.7860    2.5287 C   0  0  0  0  0  0  0  0  0  7  0  0
    1.9417    4.0583    1.2194 C   0  0  0  0  0  0  0  0  0  8  0  0
    2.6167    4.3883    0.0949 C   0  0  0  0  0  0  0  0  0  9  0  0
    3.2805    5.2196   -0.0685 H   0  0  0  0  0  0  0  0  0 47  0  0
    2.3305    3.2409   -1.1709 S   0  0  0  0  0  0  0  0  0 10  0  0
    1.2857    2.3947   -0.0468 C   0  0  0  0  0  0  0  0  0 11  0  0
    0.6269    1.2545   -0.4069 N   0  0  0  0  0  0  0  0  0 13  0  0
    0.7468    0.7092   -1.6353 C   0  0  0  0  0  0  0  0  0 14  0  0
    1.4442    1.2645   -2.4938 O   0  0  0  0  0  0  0  0  0 15  0  0
   -0.0086   -0.5190   -1.8892 C   0  0  0  0  0  0  0  0  0 16  0  0
    0.1067   -1.1118   -3.1417 C   0  0  0  0  0  0  0  0  0 17  0  0
    0.8219   -0.5776   -4.1205 O   0  0  0  0  0  0  0  0  0 18  0  0
    1.2322    0.2502   -3.7431 H   0  0  0  0  0  0  0  0  0 19  0  0
   -0.5808   -2.3438   -3.4089 C   0  0  0  0  0  0  0  0  0 20  0  0
   -0.4637   -2.9335   -4.6707 C   0  0  0  0  0  0  0  0  0 21  0  0
    0.1478   -2.4559   -5.4105 H   0  0  0  0  0  0  0  0  0 45  0  0
   -1.1043   -4.1307   -4.9295 C   0  0  0  0  0  0  0  0  0 22  0  0
   -1.0142   -4.5898   -5.9002 H   0  0  0  0  0  0  0  0  0 44  0  0
   -1.8887   -4.7200   -3.9365 C   0  0  0  0  0  0  0  0  0 23  0  0
   -2.4006   -5.6513   -4.1472 H   0  0  0  0  0  0  0  0  0 43  0  0
   -2.0142   -4.1392   -2.6985 C   0  0  0  0  0  0  0  0  0 24  0  0
   -2.6259   -4.6327   -1.9652 H   0  0  0  0  0  0  0  0  0 42  0  0
   -1.3785   -2.9260   -2.4057 C   0  0  0  0  0  0  0  0  0 25  0  0
   -1.4437   -2.3348   -1.1622 N   0  0  0  0  0  0  0  0  0 26  0  0
   -2.2517   -2.8751   -0.0906 C   0  0  0  0  0  0  0  0  0 29  0  0
   -2.3860   -3.9485   -0.2315 H   0  0  0  0  0  0  0  0  0 30  0  0
   -1.7082   -2.7134    0.8457 H   0  0  0  0  0  0  0  0  0 31  0  0
   -3.6069   -2.1748    0.0612 C   0  0  2  0  0  0  0  0  0 32  0  0
   -4.3843   -2.8242    1.2095 C   0  0  0  0  0  0  0  0  0 33  0  0
   -3.8125   -2.8029    2.1323 H   0  0  0  0  0  0  0  0  0 34  0  0
   -5.3226   -2.3044    1.3739 H   0  0  0  0  0  0  0  0  0 35  0  0
   -4.6101   -3.8602    0.9694 H   0  0  0  0  0  0  0  0  0 36  0  0
   -4.4224   -2.2191   -1.2274 C   0  0  0  0  0  0  0  0  0 37  0  0
   -3.8909   -1.7144   -2.0414 H   0  0  0  0  0  0  0  0  0 38  0  0
   -5.3780   -1.7046   -1.0824 H   0  0  0  0  0  0  0  0  0 39  0  0
   -4.6302   -3.2465   -1.5092 H   0  0  0  0  0  0  0  0  0 40  0  0
   -3.4037   -1.1229    0.3151 H   0  0  0  0  0  0  0  0  0 41  0  0
   -0.7911   -1.1474   -0.8505 C   0  0  0  0  0  0  0  0  0 27  0  0
   -0.9026   -0.6770    0.2842 O   0  0  0  0  0  0  0  0  0 28  0  0
    0.0486    0.7517    0.2771 H   0  0  0  0  0  0  0  0  0 46  0  0
    1.1960    2.9289    1.1263 N   0  0  0  0  0  0  0  0  0 12  0  0
    1.1609    4.4271    3.1558 H   0  0  0  0  0  0  0  0  0 48  0  0
    1.9027    5.8596    2.3511 H   0  0  0  0  0  0  0  0  0 49  0  0
    3.8140    3.7618    6.6087 H   0  0  0  0  0  0  0  0  0 50  0  0
    5.5391    3.3985    6.4580 H   0  0  0  0  0  0  0  0  0 51  0  0
    4.8794    4.8415    5.6806 H   0  0  0  0  0  0  0  0  0 52  0  0
  1  2  1  0
  2  3  1  0
  2  4  1  0
  2  5  1  0
  5  6  1  0
  6  7  2  0
  6  8  1  0
  8  9  1  0
  9 10  4  0
 10 11  1  0
 10 12  4  0
 12 13  4  0
 13 14  1  0
 14 15  1  0
 15 16  2  0
 15 17  1  0
 17 18  4  0
 18 19  1  0
 19 20  1  0
 18 21  4  0
 21 22  4  0
 22 23  1  0
 22 24  4  0
 24 25  1  0
 24 26  4  0
 26 27  1  0
 26 28  4  0
 28 29  1  0
 28 30  4  0
 30 31  4  0
 31 32  1  0
 32 33  1  0
 32 34  1  0
 32 35  1  0
 35 36  1  0
 36 37  1  0
 36 38  1  0
 36 39  1  0
 35 40  1  0
 40 41  1  0
 40 42  1  0
 40 43  1  0
 35 44  1  1
 31 45  4  0
 45 46  2  0
 14 47  1  0
 13 48  4  0
  8 49  1  0
  8 50  1  0
  1 51  1  0
  1 52  1  0
  1 53  1  0
 48  9  4  0
 45 17  4  0
 30 21  4  0
M  END
>  <sample_id>  (215)
train::CCOC(=O)Cc1csc(NC(=O)c2c(O)c3ccccc3n(CC(C)C)c2=O)n1__gen0001

>  <partition>  (215)
BAT_EXTERNAL_CONFIRM

>  <method>  (215)
BA_seed193

>  <candidate>  (215)
primary

$$$$
train::CCOC(=O)Cc1csc(NC(=O)c2c(O)c3ccccc3n(CC(C)C)c2=O)n1__gen0002
     RDKit          3D

 53 55  0  0  0  0  0  0  0  0999 V2000
    3.3184    0.1403    6.4109 C   0  0  0  0  0  0  0  0  0  0  0  0
    3.8557    1.4690    5.8906 C   0  0  0  0  0  0  0  0  0  1  0  0
    4.7912    1.7220    6.3909 H   0  0  0  0  0  0  0  0  0  2  0  0
    3.1203    2.2712    6.0530 H   0  0  0  0  0  0  0  0  0  3  0  0
    4.0361    1.4350    4.4765 O   0  0  0  0  0  0  0  0  0  4  0  0
    5.1967    0.9248    4.0287 C   0  0  0  0  0  0  0  0  0  5  0  0
    6.0800    0.5361    4.7520 O   0  0  0  0  0  0  0  0  0  6  0  0
    5.2566    0.9107    2.5216 C   0  0  0  0  0  0  0  0  0  7  0  0
    4.0873    1.5600    1.8707 C   0  0  0  0  0  0  0  0  0  8  0  0
    3.8437    2.9037    1.8289 C   0  0  0  0  0  0  0  0  0  9  0  0
    4.4638    3.7005    2.2057 H   0  0  0  0  0  0  0  0  0 47  0  0
    2.3501    3.2519    1.0312 S   0  0  0  0  0  0  0  0  0 10  0  0
    2.1596    1.5249    0.8300 C   0  0  0  0  0  0  0  0  0 11  0  0
    1.0723    0.9790    0.2136 N   0  0  0  0  0  0  0  0  0 13  0  0
    0.0715    1.7644   -0.2775 C   0  0  0  0  0  0  0  0  0 14  0  0
    0.1359    2.9928   -0.1937 O   0  0  0  0  0  0  0  0  0 15  0  0
   -1.0678    1.0790   -0.9053 C   0  0  0  0  0  0  0  0  0 16  0  0
   -2.0868    1.8510   -1.4548 C   0  0  0  0  0  0  0  0  0 17  0  0
   -2.0663    3.1593   -1.4184 O   0  0  0  0  0  0  0  0  0 18  0  0
   -1.2324    3.4496   -0.9536 H   0  0  0  0  0  0  0  0  0 19  0  0
   -3.2015    1.2053   -2.0655 C   0  0  0  0  0  0  0  0  0 20  0  0
   -4.2343    1.9793   -2.6355 C   0  0  0  0  0  0  0  0  0 21  0  0
   -4.1637    3.0526   -2.5533 H   0  0  0  0  0  0  0  0  0 45  0  0
   -5.3168    1.3689   -3.2165 C   0  0  0  0  0  0  0  0  0 22  0  0
   -6.1155    1.9610   -3.6371 H   0  0  0  0  0  0  0  0  0 44  0  0
   -5.3716   -0.0252   -3.2792 C   0  0  0  0  0  0  0  0  0 23  0  0
   -6.2224   -0.4991   -3.7397 H   0  0  0  0  0  0  0  0  0 43  0  0
   -4.3629   -0.7938   -2.7410 C   0  0  0  0  0  0  0  0  0 24  0  0
   -4.4562   -1.8573   -2.8098 H   0  0  0  0  0  0  0  0  0 42  0  0
   -3.2584   -0.2052   -2.1273 C   0  0  0  0  0  0  0  0  0 25  0  0
   -2.2325   -0.9332   -1.5721 N   0  0  0  0  0  0  0  0  0 26  0  0
   -2.2122   -2.4042   -1.6018 C   0  0  0  0  0  0  0  0  0 29  0  0
   -1.7451   -2.7213   -0.6574 H   0  0  0  0  0  0  0  0  0 30  0  0
   -3.2393   -2.7710   -1.6224 H   0  0  0  0  0  0  0  0  0 31  0  0
   -1.3736   -2.9779   -2.7430 C   0  0  2  0  0  0  0  0  0 32  0  0
   -1.9692   -2.6517   -4.1161 C   0  0  0  0  0  0  0  0  0 33  0  0
   -1.3267   -3.0668   -4.9000 H   0  0  0  0  0  0  0  0  0 34  0  0
   -2.9625   -3.0980   -4.2021 H   0  0  0  0  0  0  0  0  0 35  0  0
   -2.0448   -1.5834   -4.2658 H   0  0  0  0  0  0  0  0  0 36  0  0
   -1.2581   -4.4892   -2.5569 C   0  0  0  0  0  0  0  0  0 37  0  0
   -2.2476   -4.9512   -2.5830 H   0  0  0  0  0  0  0  0  0 38  0  0
   -0.6678   -4.9254   -3.3582 H   0  0  0  0  0  0  0  0  0 39  0  0
   -0.7807   -4.7357   -1.6170 H   0  0  0  0  0  0  0  0  0 40  0  0
   -0.3741   -2.5402   -2.6720 H   0  0  0  0  0  0  0  0  0 41  0  0
   -1.1180   -0.3769   -0.9796 C   0  0  0  0  0  0  0  0  0 27  0  0
   -0.2376   -1.0929   -0.5027 O   0  0  0  0  0  0  0  0  0 28  0  0
    0.9461   -0.0257    0.1244 H   0  0  0  0  0  0  0  0  0 46  0  0
    3.1160    0.8025    1.3043 N   0  0  0  0  0  0  0  0  0 12  0  0
    5.2963   -0.1394    2.1939 H   0  0  0  0  0  0  0  0  0 48  0  0
    6.1868    1.4047    2.2279 H   0  0  0  0  0  0  0  0  0 49  0  0
    2.4036   -0.1316    5.8781 H   0  0  0  0  0  0  0  0  0 50  0  0
    3.0979    0.2297    7.4705 H   0  0  0  0  0  0  0  0  0 51  0  0
    4.0606   -0.6326    6.2551 H   0  0  0  0  0  0  0  0  0 52  0  0
  1  2  1  0
  2  3  1  0
  2  4  1  0
  2  5  1  0
  5  6  1  0
  6  7  2  0
  6  8  1  0
  8  9  1  0
  9 10  4  0
 10 11  1  0
 10 12  4  0
 12 13  4  0
 13 14  1  0
 14 15  1  0
 15 16  2  0
 15 17  1  0
 17 18  4  0
 18 19  1  0
 19 20  1  0
 18 21  4  0
 21 22  4  0
 22 23  1  0
 22 24  4  0
 24 25  1  0
 24 26  4  0
 26 27  1  0
 26 28  4  0
 28 29  1  0
 28 30  4  0
 30 31  4  0
 31 32  1  0
 32 33  1  0
 32 34  1  0
 32 35  1  0
 35 36  1  0
 36 37  1  0
 36 38  1  0
 36 39  1  0
 35 40  1  0
 40 41  1  0
 40 42  1  0
 40 43  1  0
 35 44  1  6
 31 45  4  0
 45 46  2  0
 14 47  1  0
 13 48  4  0
  8 49  1  0
  8 50  1  0
  1 51  1  0
  1 52  1  0
  1 53  1  0
 48  9  4  0
 45 17  4  0
 30 21  4  0
M  END
>  <sample_id>  (216)
train::CCOC(=O)Cc1csc(NC(=O)c2c(O)c3ccccc3n(CC(C)C)c2=O)n1__gen0002

>  <partition>  (216)
BAT_EXTERNAL_CONFIRM

>  <method>  (216)
BA_seed193

>  <candidate>  (216)
primary

$$$$
train::Cc1csc(NC(=O)c2c(-c3ccccc3)noc2C)n1__gen0000
     RDKit          3D

 34 36  0  0  0  0  0  0  0  0999 V2000
   -2.1136   -1.2696    3.2213 C   0  0  0  0  0  0  0  0  0  0  0  0
   -1.0305   -1.3270    2.2114 C   0  0  0  0  0  0  0  0  0  1  0  0
    0.3041   -1.2250    2.4619 C   0  0  0  0  0  0  0  0  0  2  0  0
    0.8043   -1.0826    3.3943 H   0  0  0  0  0  0  0  0  0 30  0  0
    1.2237   -1.3289    0.9936 S   0  0  0  0  0  0  0  0  0  3  0  0
   -0.3140   -1.4958    0.1391 C   0  0  0  0  0  0  0  0  0  4  0  0
   -0.3949   -1.6738   -1.2172 N   0  0  0  0  0  0  0  0  0  6  0  0
    0.4073   -1.1849   -2.2133 C   0  0  0  0  0  0  0  0  0  7  0  0
    0.2891   -1.6043   -3.3511 O   0  0  0  0  0  0  0  0  0  8  0  0
    1.3745   -0.1351   -1.8388 C   0  0  0  0  0  0  0  0  0  9  0  0
    2.6643   -0.0254   -2.2819 C   0  0  0  0  0  0  0  0  0 10  0  0
    3.4824   -0.8927   -3.1528 C   0  0  0  0  0  0  0  0  0 25  0  0
    2.8140   -1.5051   -3.7532 H   0  0  0  0  0  0  0  0  0 26  0  0
    4.1052   -0.2815   -3.8060 H   0  0  0  0  0  0  0  0  0 27  0  0
    4.1228   -1.5329   -2.5544 H   0  0  0  0  0  0  0  0  0 28  0  0
    3.2090    1.0800   -1.7541 O   0  0  0  0  0  0  0  0  0 11  0  0
    2.2973    1.7085   -0.9760 N   0  0  0  0  0  0  0  0  0 12  0  0
    1.1847    1.0222   -1.0163 C   0  0  0  0  0  0  0  0  0 13  0  0
   -0.0147    1.4301   -0.3066 C   0  0  0  0  0  0  0  0  0 14  0  0
   -1.2760    1.2463   -0.8645 C   0  0  0  0  0  0  0  0  0 15  0  0
   -1.3657    0.8545   -1.8623 H   0  0  0  0  0  0  0  0  0 24  0  0
   -2.4039    1.6139   -0.1634 C   0  0  0  0  0  0  0  0  0 16  0  0
   -3.3844    1.4596   -0.5993 H   0  0  0  0  0  0  0  0  0 23  0  0
   -2.2906    2.1227    1.1222 C   0  0  0  0  0  0  0  0  0 17  0  0
   -3.1817    2.3825    1.6736 H   0  0  0  0  0  0  0  0  0 22  0  0
   -1.0381    2.3264    1.6794 C   0  0  0  0  0  0  0  0  0 18  0  0
   -0.9451    2.7478    2.6672 H   0  0  0  0  0  0  0  0  0 21  0  0
    0.0945    1.9901    0.9650 C   0  0  0  0  0  0  0  0  0 19  0  0
    1.0804    2.1275    1.3867 H   0  0  0  0  0  0  0  0  0 20  0  0
   -1.1635   -2.2658   -1.5123 H   0  0  0  0  0  0  0  0  0 29  0  0
   -1.3523   -1.4920    0.8967 N   0  0  0  0  0  0  0  0  0  5  0  0
   -2.8134   -0.4825    2.9582 H   0  0  0  0  0  0  0  0  0 31  0  0
   -1.7140   -1.0948    4.2189 H   0  0  0  0  0  0  0  0  0 32  0  0
   -2.6612   -2.2123    3.2338 H   0  0  0  0  0  0  0  0  0 33  0  0
  1  2  1  0
  2  3  4  0
  3  4  1  0
  3  5  4  0
  5  6  4  0
  6  7  1  0
  7  8  1  0
  8  9  2  0
  8 10  1  0
 10 11  4  0
 11 12  1  0
 12 13  1  0
 12 14  1  0
 12 15  1  0
 11 16  4  0
 16 17  4  0
 17 18  4  0
 18 19  1  0
 19 20  4  0
 20 21  1  0
 20 22  4  0
 22 23  1  0
 22 24  4  0
 24 25  1  0
 24 26  4  0
 26 27  1  0
 26 28  4  0
 28 29  1  0
  7 30  1  0
  6 31  4  0
  1 32  1  0
  1 33  1  0
  1 34  1  0
 31  2  4  0
 18 10  4  0
 28 19  4  0
M  END
>  <sample_id>  (217)
train::Cc1csc(NC(=O)c2c(-c3ccccc3)noc2C)n1__gen0000

>  <partition>  (217)
BAT_EXTERNAL_CONFIRM

>  <method>  (217)
BA_seed193

>  <candidate>  (217)
primary

$$$$
train::Cc1csc(NC(=O)c2c(-c3ccccc3)noc2C)n1__gen0001
     RDKit          3D

 34 36  0  0  0  0  0  0  0  0999 V2000
    1.8878    2.7724    0.3230 C   0  0  0  0  0  0  0  0  0  0  0  0
    0.4718    2.3378    0.4376 C   0  0  0  0  0  0  0  0  0  1  0  0
   -0.6133    3.0265   -0.0179 C   0  0  0  0  0  0  0  0  0  2  0  0
   -0.6464    3.9759   -0.5068 H   0  0  0  0  0  0  0  0  0 30  0  0
   -2.0673    2.1637    0.3234 S   0  0  0  0  0  0  0  0  0  3  0  0
   -1.0709    0.9001    1.0389 C   0  0  0  0  0  0  0  0  0  4  0  0
   -1.6605   -0.2234    1.5391 N   0  0  0  0  0  0  0  0  0  6  0  0
   -1.0520   -1.4513    1.7358 C   0  0  0  0  0  0  0  0  0  7  0  0
   -1.6236   -2.3073    2.3848 O   0  0  0  0  0  0  0  0  0  8  0  0
    0.2526   -1.6470    1.0957 C   0  0  0  0  0  0  0  0  0  9  0  0
    1.3765   -2.2048    1.6590 C   0  0  0  0  0  0  0  0  0 10  0  0
    1.6455   -2.7563    3.0004 C   0  0  0  0  0  0  0  0  0 25  0  0
    2.4194   -2.1748    3.4874 H   0  0  0  0  0  0  0  0  0 26  0  0
    0.7300   -2.7288    3.5812 H   0  0  0  0  0  0  0  0  0 27  0  0
    1.9735   -3.7888    2.9169 H   0  0  0  0  0  0  0  0  0 28  0  0
    2.3549   -2.2022    0.7481 O   0  0  0  0  0  0  0  0  0 11  0  0
    1.9186   -1.6655   -0.4086 N   0  0  0  0  0  0  0  0  0 12  0  0
    0.6660   -1.3353   -0.2394 C   0  0  0  0  0  0  0  0  0 13  0  0
   -0.1413   -0.7306   -1.2997 C   0  0  0  0  0  0  0  0  0 14  0  0
   -1.4957   -1.0342   -1.4239 C   0  0  0  0  0  0  0  0  0 15  0  0
   -1.9381   -1.7627   -0.7594 H   0  0  0  0  0  0  0  0  0 24  0  0
   -2.2560   -0.4175   -2.3965 C   0  0  0  0  0  0  0  0  0 16  0  0
   -3.3077   -0.6476   -2.4823 H   0  0  0  0  0  0  0  0  0 23  0  0
   -1.6767    0.5073   -3.2479 C   0  0  0  0  0  0  0  0  0 17  0  0
   -2.2641    0.9840   -4.0128 H   0  0  0  0  0  0  0  0  0 22  0  0
   -0.3209    0.7826   -3.1510 C   0  0  0  0  0  0  0  0  0 18  0  0
    0.1444    1.4846   -3.8314 H   0  0  0  0  0  0  0  0  0 21  0  0
    0.4520    0.1584   -2.1901 C   0  0  0  0  0  0  0  0  0 19  0  0
    1.5025    0.3672   -2.0972 H   0  0  0  0  0  0  0  0  0 20  0  0
   -2.6099   -0.1471    1.8699 H   0  0  0  0  0  0  0  0  0 29  0  0
    0.1969    1.1505    1.0213 N   0  0  0  0  0  0  0  0  0  5  0  0
    1.9723    3.7042   -0.2425 H   0  0  0  0  0  0  0  0  0 31  0  0
    2.3119    2.9136    1.3210 H   0  0  0  0  0  0  0  0  0 32  0  0
    2.4676    1.9964   -0.1762 H   0  0  0  0  0  0  0  0  0 33  0  0
  1  2  1  0
  2  3  4  0
  3  4  1  0
  3  5  4  0
  5  6  4  0
  6  7  1  0
  7  8  1  0
  8  9  2  0
  8 10  1  0
 10 11  4  0
 11 12  1  0
 12 13  1  0
 12 14  1  0
 12 15  1  0
 11 16  4  0
 16 17  4  0
 17 18  4  0
 18 19  1  0
 19 20  4  0
 20 21  1  0
 20 22  4  0
 22 23  1  0
 22 24  4  0
 24 25  1  0
 24 26  4  0
 26 27  1  0
 26 28  4  0
 28 29  1  0
  7 30  1  0
  6 31  4  0
  1 32  1  0
  1 33  1  0
  1 34  1  0
 31  2  4  0
 18 10  4  0
 28 19  4  0
M  END
>  <sample_id>  (218)
train::Cc1csc(NC(=O)c2c(-c3ccccc3)noc2C)n1__gen0001

>  <partition>  (218)
BAT_EXTERNAL_CONFIRM

>  <method>  (218)
BA_seed193

>  <candidate>  (218)
primary

$$$$
train::Cc1csc(NC(=O)c2c(-c3ccccc3)noc2C)n1__gen0002
     RDKit          3D

 34 36  0  0  0  0  0  0  0  0999 V2000
    0.9605   -4.2141    4.1188 C   0  0  0  0  0  0  0  0  0  0  0  0
    1.0099   -2.9064    3.4072 C   0  0  0  0  0  0  0  0  0  1  0  0
    1.9351   -1.9248    3.5865 C   0  0  0  0  0  0  0  0  0  2  0  0
    2.7713   -1.9070    4.2517 H   0  0  0  0  0  0  0  0  0 30  0  0
    1.6182   -0.5586    2.5587 S   0  0  0  0  0  0  0  0  0  3  0  0
    0.2455   -1.4560    1.9544 C   0  0  0  0  0  0  0  0  0  4  0  0
   -0.5722   -0.9190    0.9997 N   0  0  0  0  0  0  0  0  0  6  0  0
   -0.3514    0.3204    0.4564 C   0  0  0  0  0  0  0  0  0  7  0  0
    0.5915    1.0048    0.8090 O   0  0  0  0  0  0  0  0  0  8  0  0
   -1.3363    0.7205   -0.5424 C   0  0  0  0  0  0  0  0  0  9  0  0
   -2.7074    0.6205   -0.4400 C   0  0  0  0  0  0  0  0  0 10  0  0
   -3.6108    0.0209    0.5730 C   0  0  0  0  0  0  0  0  0 25  0  0
   -4.5120    0.6254    0.6363 H   0  0  0  0  0  0  0  0  0 26  0  0
   -3.9015   -0.9877    0.2813 H   0  0  0  0  0  0  0  0  0 27  0  0
   -3.1143   -0.0111    1.5461 H   0  0  0  0  0  0  0  0  0 28  0  0
   -3.2671    1.1856   -1.5198 O   0  0  0  0  0  0  0  0  0 11  0  0
   -2.3093    1.6964   -2.3207 N   0  0  0  0  0  0  0  0  0 12  0  0
   -1.1447    1.4350   -1.7793 C   0  0  0  0  0  0  0  0  0 13  0  0
    0.0980    1.8227   -2.4073 C   0  0  0  0  0  0  0  0  0 14  0  0
    0.1094    2.9229   -3.2647 C   0  0  0  0  0  0  0  0  0 15  0  0
   -0.8128    3.4721   -3.4244 H   0  0  0  0  0  0  0  0  0 24  0  0
    1.2877    3.3252   -3.8682 C   0  0  0  0  0  0  0  0  0 16  0  0
    1.2911    4.1889   -4.5164 H   0  0  0  0  0  0  0  0  0 23  0  0
    2.4577    2.6068   -3.6602 C   0  0  0  0  0  0  0  0  0 17  0  0
    3.3794    2.9188   -4.1275 H   0  0  0  0  0  0  0  0  0 22  0  0
    2.4450    1.4967   -2.8275 C   0  0  0  0  0  0  0  0  0 18  0  0
    3.3512    0.9302   -2.6697 H   0  0  0  0  0  0  0  0  0 21  0  0
    1.2715    1.0922   -2.2251 C   0  0  0  0  0  0  0  0  0 19  0  0
    1.2657    0.2192   -1.5937 H   0  0  0  0  0  0  0  0  0 20  0  0
   -1.3357   -1.5006    0.6677 H   0  0  0  0  0  0  0  0  0 29  0  0
    0.0622   -2.6159    2.4766 N   0  0  0  0  0  0  0  0  0  5  0  0
    1.7978   -4.3052    4.8019 H   0  0  0  0  0  0  0  0  0 31  0  0
    0.0255   -4.2958    4.6707 H   0  0  0  0  0  0  0  0  0 32  0  0
    1.0012   -5.0228    3.3907 H   0  0  0  0  0  0  0  0  0 33  0  0
  1  2  1  0
  2  3  4  0
  3  4  1  0
  3  5  4  0
  5  6  4  0
  6  7  1  0
  7  8  1  0
  8  9  2  0
  8 10  1  0
 10 11  4  0
 11 12  1  0
 12 13  1  0
 12 14  1  0
 12 15  1  0
 11 16  4  0
 16 17  4  0
 17 18  4  0
 18 19  1  0
 19 20  4  0
 20 21  1  0
 20 22  4  0
 22 23  1  0
 22 24  4  0
 24 25  1  0
 24 26  4  0
 26 27  1  0
 26 28  4  0
 28 29  1  0
  7 30  1  0
  6 31  4  0
  1 32  1  0
  1 33  1  0
  1 34  1  0
 31  2  4  0
 18 10  4  0
 28 19  4  0
M  END
>  <sample_id>  (219)
train::Cc1csc(NC(=O)c2c(-c3ccccc3)noc2C)n1__gen0002

>  <partition>  (219)
BAT_EXTERNAL_CONFIRM

>  <method>  (219)
BA_seed193

>  <candidate>  (219)
primary

$$$$
train::COc1cccc(CNC(=O)C2CCN(S(=O)(=O)c3ccc4c(c3)CC(C)N4C(C)=O)CC2)c1__gen0000
     RDKit          3D

 65 68  0  0  0  0  0  0  0  0999 V2000
    2.7509   -4.6629    2.7565 C   0  0  0  0  0  0  0  0  0  0  0  0
    1.8861   -5.1746    2.3323 H   0  0  0  0  0  0  0  0  0  1  0  0
    2.9890   -3.4275    2.1000 O   0  0  0  0  0  0  0  0  0  2  0  0
    2.0883   -2.4307    2.2602 C   0  0  0  0  0  0  0  0  0  3  0  0
    0.7792   -2.6252    2.6829 C   0  0  0  0  0  0  0  0  0  4  0  0
    0.4119   -3.6120    2.9296 H   0  0  0  0  0  0  0  0  0 62  0  0
   -0.0834   -1.5424    2.7842 C   0  0  0  0  0  0  0  0  0  5  0  0
   -1.1041   -1.6936    3.1010 H   0  0  0  0  0  0  0  0  0 61  0  0
    0.3469   -0.2729    2.4750 C   0  0  0  0  0  0  0  0  0  6  0  0
   -0.3228    0.5660    2.5821 H   0  0  0  0  0  0  0  0  0 60  0  0
    1.6549   -0.0712    2.0459 C   0  0  0  0  0  0  0  0  0  7  0  0
    2.1536    1.3290    1.7814 C   0  0  0  0  0  0  0  0  0 10  0  0
    1.1706    2.1083    1.0664 N   0  0  0  0  0  0  0  0  0 11  0  0
    0.7094    3.3011    1.5152 C   0  0  0  0  0  0  0  0  0 12  0  0
    1.1489    3.8340    2.5130 O   0  0  0  0  0  0  0  0  0 13  0  0
   -0.4237    3.9209    0.6966 C   0  0  1  0  0  0  0  0  0 14  0  0
   -0.5397    4.9413    1.0694 H   0  0  0  0  0  0  0  0  0 56  0  0
   -0.1051    3.9493   -0.8012 C   0  0  0  0  0  0  0  0  0 15  0  0
    0.7836    4.5434   -0.9786 H   0  0  0  0  0  0  0  0  0 54  0  0
    0.0680    2.9422   -1.1589 H   0  0  0  0  0  0  0  0  0 55  0  0
   -1.2896    4.5668   -1.5646 C   0  0  0  0  0  0  0  0  0 16  0  0
   -1.4029    5.6146   -1.2816 H   0  0  0  0  0  0  0  0  0 52  0  0
   -1.1463    4.4850   -2.6389 H   0  0  0  0  0  0  0  0  0 53  0  0
   -2.5289    3.8852   -1.2631 N   0  0  0  0  0  0  0  0  0 17  0  0
   -3.0426    2.6683   -2.2610 S   0  0  2  0  0  6  0  0  0 18  0  0
   -2.6317    3.0237   -3.5963 O   0  0  0  0  0  0  0  0  0 19  0  0
   -4.4316    2.4544   -1.9877 O   0  0  0  0  0  0  0  0  0 20  0  0
   -2.1558    1.1679   -1.7904 C   0  0  0  0  0  0  0  0  0 21  0  0
   -2.7476    0.2844   -0.9054 C   0  0  0  0  0  0  0  0  0 22  0  0
   -3.7237    0.5256   -0.5133 H   0  0  0  0  0  0  0  0  0 45  0  0
   -2.0997   -0.8891   -0.5367 C   0  0  0  0  0  0  0  0  0 23  0  0
   -2.5583   -1.5741    0.1623 H   0  0  0  0  0  0  0  0  0 44  0  0
   -0.8605   -1.1323   -1.1027 C   0  0  0  0  0  0  0  0  0 24  0  0
   -0.2479   -0.2217   -1.9545 C   0  0  0  0  0  0  0  0  0 25  0  0
   -0.9037    0.9329   -2.3255 C   0  0  0  0  0  0  0  0  0 26  0  0
   -0.4736    1.6273   -3.0339 H   0  0  0  0  0  0  0  0  0 27  0  0
    1.1485   -0.6750   -2.2650 C   0  0  0  0  0  0  0  0  0 28  0  0
    1.8683   -0.1383   -1.6477 H   0  0  0  0  0  0  0  0  0 29  0  0
    1.4251   -0.5430   -3.3076 H   0  0  0  0  0  0  0  0  0 30  0  0
    1.0864   -2.1683   -1.8997 C   0  0  2  0  0  0  0  0  0 31  0  0
    0.8034   -3.0272   -3.1285 C   0  0  0  0  0  0  0  0  0 39  0  0
    0.5802   -4.0502   -2.8437 H   0  0  0  0  0  0  0  0  0 40  0  0
   -0.0571   -2.6344   -3.6584 H   0  0  0  0  0  0  0  0  0 41  0  0
    1.6688   -3.0053   -3.7807 H   0  0  0  0  0  0  0  0  0 42  0  0
    2.0249   -2.4745   -1.4266 H   0  0  0  0  0  0  0  0  0 43  0  0
   -0.0543   -2.2581   -0.9622 N   0  0  0  0  0  0  0  0  0 32  0  0
   -0.2782   -3.3409   -0.1700 C   0  0  0  0  0  0  0  0  0 33  0  0
   -1.2388   -3.3729    0.6006 O   0  0  0  0  0  0  0  0  0 34  0  0
    0.6935   -4.4633   -0.2830 C   0  0  0  0  0  0  0  0  0 35  0  0
    1.7184   -4.1406   -0.0905 H   0  0  0  0  0  0  0  0  0 36  0  0
    0.4358   -5.2429    0.4208 H   0  0  0  0  0  0  0  0  0 37  0  0
    0.6485   -4.9084   -1.2922 H   0  0  0  0  0  0  0  0  0 38  0  0
   -2.8621    3.7768    0.1316 C   0  0  0  0  0  0  0  0  0 46  0  0
   -3.0688    4.7844    0.5083 H   0  0  0  0  0  0  0  0  0 50  0  0
   -3.7774    3.1833    0.1865 H   0  0  0  0  0  0  0  0  0 51  0  0
   -1.7250    3.1519    0.9479 C   0  0  0  0  0  0  0  0  0 47  0  0
   -1.5901    2.1098    0.6470 H   0  0  0  0  0  0  0  0  0 48  0  0
   -1.9910    3.1663    2.0118 H   0  0  0  0  0  0  0  0  0 49  0  0
    0.7267    1.6787    0.2551 H   0  0  0  0  0  0  0  0  0 57  0  0
    2.3353    1.8750    2.7127 H   0  0  0  0  0  0  0  0  0 58  0  0
    3.0833    1.3085    1.2128 H   0  0  0  0  0  0  0  0  0 59  0  0
    2.5141   -1.1509    1.9293 C   0  0  0  0  0  0  0  0  0  8  0  0
    3.5301   -1.0162    1.6020 H   0  0  0  0  0  0  0  0  0  9  0  0
    3.6493   -5.2614    2.6025 H   0  0  0  0  0  0  0  0  0 63  0  0
    2.5841   -4.5041    3.8274 H   0  0  0  0  0  0  0  0  0 64  0  0
  1  2  1  0
  1  3  1  0
  3  4  1  0
  4  5  4  0
  5  6  1  0
  5  7  4  0
  7  8  1  0
  7  9  4  0
  9 10  1  0
  9 11  4  0
 11 12  1  0
 12 13  1  0
 13 14  1  0
 14 15  2  0
 14 16  1  0
 16 17  1  1
 16 18  1  0
 18 19  1  0
 18 20  1  0
 18 21  1  0
 21 22  1  0
 21 23  1  0
 21 24  1  0
 24 25  1  0
 25 26  2  0
 25 27  2  0
 25 28  1  1
 28 29  4  0
 29 30  1  0
 29 31  4  0
 31 32  1  0
 31 33  4  0
 33 34  4  0
 34 35  4  0
 35 36  1  0
 34 37  1  0
 37 38  1  0
 37 39  1  0
 37 40  1  0
 40 41  1  0
 41 42  1  0
 41 43  1  0
 41 44  1  0
 40 45  1  1
 40 46  1  0
 46 47  1  0
 47 48  2  0
 47 49  1  0
 49 50  1  0
 49 51  1  0
 49 52  1  0
 24 53  1  0
 53 54  1  0
 53 55  1  0
 53 56  1  0
 56 57  1  0
 56 58  1  0
 13 59  1  0
 12 60  1  0
 12 61  1  0
 11 62  4  0
 62 63  1  0
  1 64  1  0
  1 65  1  0
 62  4  4  0
 56 16  1  0
 35 28  4  0
 46 33  1  0
M  END
>  <sample_id>  (220)
train::COc1cccc(CNC(=O)C2CCN(S(=O)(=O)c3ccc4c(c3)CC(C)N4C(C)=O)CC2)c1__gen0000

>  <partition>  (220)
BAT_EXTERNAL_CONFIRM

>  <method>  (220)
BA_seed193

>  <candidate>  (220)
primary

$$$$
train::COc1cccc(CNC(=O)C2CCN(S(=O)(=O)c3ccc4c(c3)CC(C)N4C(C)=O)CC2)c1__gen0001
     RDKit          3D

 65 68  0  0  0  0  0  0  0  0999 V2000
    2.2810   -1.5836    3.8730 C   0  0  0  0  0  0  0  0  0  0  0  0
    2.9478   -1.2377    3.0811 H   0  0  0  0  0  0  0  0  0  1  0  0
    1.1657   -0.7299    3.9738 O   0  0  0  0  0  0  0  0  0  2  0  0
    1.3607    0.5968    4.1326 C   0  0  0  0  0  0  0  0  0  3  0  0
    2.5689    1.1821    4.5011 C   0  0  0  0  0  0  0  0  0  4  0  0
    3.4448    0.5854    4.6650 H   0  0  0  0  0  0  0  0  0 62  0  0
    2.6452    2.5564    4.6500 C   0  0  0  0  0  0  0  0  0  5  0  0
    3.5781    3.0107    4.9430 H   0  0  0  0  0  0  0  0  0 61  0  0
    1.5459    3.3636    4.4196 C   0  0  0  0  0  0  0  0  0  6  0  0
    1.6134    4.4295    4.5210 H   0  0  0  0  0  0  0  0  0 60  0  0
    0.3447    2.7789    4.0507 C   0  0  0  0  0  0  0  0  0  7  0  0
   -0.8231    3.6094    3.5554 C   0  0  0  0  0  0  0  0  0 10  0  0
   -0.7503    3.5676    2.0890 N   0  0  0  0  0  0  0  0  0 11  0  0
   -0.2306    4.5733    1.3682 C   0  0  0  0  0  0  0  0  0 12  0  0
   -0.1982    5.7277    1.7305 O   0  0  0  0  0  0  0  0  0 13  0  0
    0.3113    4.1129    0.0067 C   0  0  1  0  0  0  0  0  0 14  0  0
    0.4899    5.0111   -0.5948 H   0  0  0  0  0  0  0  0  0 56  0  0
    1.6749    3.4685    0.3250 C   0  0  0  0  0  0  0  0  0 15  0  0
    2.3715    4.2651    0.5960 H   0  0  0  0  0  0  0  0  0 54  0  0
    1.5737    2.8216    1.1926 H   0  0  0  0  0  0  0  0  0 55  0  0
    2.1940    2.6305   -0.8366 C   0  0  0  0  0  0  0  0  0 16  0  0
    2.4287    3.2740   -1.6885 H   0  0  0  0  0  0  0  0  0 52  0  0
    3.0815    2.0853   -0.5278 H   0  0  0  0  0  0  0  0  0 53  0  0
    1.1975    1.6574   -1.2374 N   0  0  0  0  0  0  0  0  0 17  0  0
    0.9594    0.4472   -0.1131 S   0  0  2  0  0  6  0  0  0 18  0  0
   -0.0048    0.7857    0.8979 O   0  0  0  0  0  0  0  0  0 19  0  0
    2.2564    0.0372    0.3362 O   0  0  0  0  0  0  0  0  0 20  0  0
    0.2471   -0.8292   -1.1378 C   0  0  0  0  0  0  0  0  0 21  0  0
    0.9708   -1.2510   -2.2386 C   0  0  0  0  0  0  0  0  0 22  0  0
    1.9441   -0.8222   -2.4134 H   0  0  0  0  0  0  0  0  0 45  0  0
    0.4729   -2.2293   -3.0796 C   0  0  0  0  0  0  0  0  0 23  0  0
    1.0322   -2.5693   -3.9326 H   0  0  0  0  0  0  0  0  0 44  0  0
   -0.7872   -2.7445   -2.7941 C   0  0  0  0  0  0  0  0  0 24  0  0
   -1.5168   -2.2969   -1.6839 C   0  0  0  0  0  0  0  0  0 25  0  0
   -1.0076   -1.3233   -0.8483 C   0  0  0  0  0  0  0  0  0 26  0  0
   -1.5371   -0.9657    0.0144 H   0  0  0  0  0  0  0  0  0 27  0  0
   -2.8428   -2.9848   -1.6585 C   0  0  0  0  0  0  0  0  0 28  0  0
   -3.0966   -3.3739   -0.6769 H   0  0  0  0  0  0  0  0  0 29  0  0
   -3.6384   -2.2923   -1.9520 H   0  0  0  0  0  0  0  0  0 30  0  0
   -2.6584   -4.1314   -2.6652 C   0  0  2  0  0  0  0  0  0 31  0  0
   -2.3881   -5.4381   -1.9171 C   0  0  0  0  0  0  0  0  0 39  0  0
   -2.1816   -6.2444   -2.6065 H   0  0  0  0  0  0  0  0  0 40  0  0
   -3.2731   -5.7095   -1.3493 H   0  0  0  0  0  0  0  0  0 41  0  0
   -1.5352   -5.2995   -1.2616 H   0  0  0  0  0  0  0  0  0 42  0  0
   -3.5370   -4.2525   -3.3128 H   0  0  0  0  0  0  0  0  0 43  0  0
   -1.5104   -3.7223   -3.4776 N   0  0  0  0  0  0  0  0  0 32  0  0
   -1.1760   -4.2113   -4.7221 C   0  0  0  0  0  0  0  0  0 33  0  0
   -0.1585   -3.8592   -5.2849 O   0  0  0  0  0  0  0  0  0 34  0  0
   -2.1765   -5.1323   -5.3585 C   0  0  0  0  0  0  0  0  0 35  0  0
   -1.7879   -5.4084   -6.3291 H   0  0  0  0  0  0  0  0  0 36  0  0
   -2.2879   -6.0429   -4.7692 H   0  0  0  0  0  0  0  0  0 37  0  0
   -3.1401   -4.6705   -5.4738 H   0  0  0  0  0  0  0  0  0 38  0  0
    0.0124    2.3046   -1.7612 C   0  0  0  0  0  0  0  0  0 46  0  0
   -0.6522    1.5025   -2.0867 H   0  0  0  0  0  0  0  0  0 50  0  0
    0.3189    2.8744   -2.6398 H   0  0  0  0  0  0  0  0  0 51  0  0
   -0.6819    3.1806   -0.7175 C   0  0  0  0  0  0  0  0  0 47  0  0
   -1.4582    3.7970   -1.1912 H   0  0  0  0  0  0  0  0  0 48  0  0
   -1.1667    2.5141   -0.0097 H   0  0  0  0  0  0  0  0  0 49  0  0
   -0.6230    2.6203    1.7457 H   0  0  0  0  0  0  0  0  0 57  0  0
   -0.7340    4.6587    3.8545 H   0  0  0  0  0  0  0  0  0 58  0  0
   -1.7716    3.2014    3.8729 H   0  0  0  0  0  0  0  0  0 59  0  0
    0.2586    1.4023    3.9042 C   0  0  0  0  0  0  0  0  0  8  0  0
   -0.6629    0.9284    3.5901 H   0  0  0  0  0  0  0  0  0  9  0  0
    1.8775   -2.5646    3.6295 H   0  0  0  0  0  0  0  0  0 63  0  0
    2.8256   -1.6421    4.8281 H   0  0  0  0  0  0  0  0  0 64  0  0
  1  2  1  0
  1  3  1  0
  3  4  1  0
  4  5  4  0
  5  6  1  0
  5  7  4  0
  7  8  1  0
  7  9  4  0
  9 10  1  0
  9 11  4  0
 11 12  1  0
 12 13  1  0
 13 14  1  0
 14 15  2  0
 14 16  1  0
 16 17  1  6
 16 18  1  0
 18 19  1  0
 18 20  1  0
 18 21  1  0
 21 22  1  0
 21 23  1  0
 21 24  1  0
 24 25  1  0
 25 26  2  0
 25 27  2  0
 25 28  1  6
 28 29  4  0
 29 30  1  0
 29 31  4  0
 31 32  1  0
 31 33  4  0
 33 34  4  0
 34 35  4  0
 35 36  1  0
 34 37  1  0
 37 38  1  0
 37 39  1  0
 37 40  1  0
 40 41  1  0
 41 42  1  0
 41 43  1  0
 41 44  1  0
 40 45  1  6
 40 46  1  0
 46 47  1  0
 47 48  2  0
 47 49  1  0
 49 50  1  0
 49 51  1  0
 49 52  1  0
 24 53  1  0
 53 54  1  0
 53 55  1  0
 53 56  1  0
 56 57  1  0
 56 58  1  0
 13 59  1  0
 12 60  1  0
 12 61  1  0
 11 62  4  0
 62 63  1  0
  1 64  1  0
  1 65  1  0
 62  4  4  0
 56 16  1  0
 35 28  4  0
 46 33  1  0
M  END
>  <sample_id>  (221)
train::COc1cccc(CNC(=O)C2CCN(S(=O)(=O)c3ccc4c(c3)CC(C)N4C(C)=O)CC2)c1__gen0001

>  <partition>  (221)
BAT_EXTERNAL_CONFIRM

>  <method>  (221)
BA_seed193

>  <candidate>  (221)
primary

$$$$
train::COc1cccc(CNC(=O)C2CCN(S(=O)(=O)c3ccc4c(c3)CC(C)N4C(C)=O)CC2)c1__gen0002
     RDKit          3D

 65 68  0  0  0  0  0  0  0  0999 V2000
   -2.3143    0.3754    4.3380 C   0  0  0  0  0  0  0  0  0  0  0  0
   -2.5509   -0.5966    4.7745 H   0  0  0  0  0  0  0  0  0  1  0  0
   -3.2295    0.7252    3.3230 O   0  0  0  0  0  0  0  0  0  2  0  0
   -3.2990   -0.0736    2.2017 C   0  0  0  0  0  0  0  0  0  3  0  0
   -4.2149    0.3349    1.2300 C   0  0  0  0  0  0  0  0  0  4  0  0
   -4.8064    1.2224    1.4226 H   0  0  0  0  0  0  0  0  0 62  0  0
   -4.3523   -0.3872    0.0655 C   0  0  0  0  0  0  0  0  0  5  0  0
   -5.0326   -0.0547   -0.6999 H   0  0  0  0  0  0  0  0  0 61  0  0
   -3.5815   -1.5220   -0.1440 C   0  0  0  0  0  0  0  0  0  6  0  0
   -3.6848   -2.0901   -1.0593 H   0  0  0  0  0  0  0  0  0 60  0  0
   -2.6769   -1.9376    0.8282 C   0  0  0  0  0  0  0  0  0  7  0  0
   -1.8104   -3.1507    0.5982 C   0  0  0  0  0  0  0  0  0 10  0  0
   -1.0671   -3.0705   -0.6323 N   0  0  0  0  0  0  0  0  0 11  0  0
    0.0752   -2.3293   -0.7237 C   0  0  0  0  0  0  0  0  0 12  0  0
    0.5712   -1.7729    0.2377 O   0  0  0  0  0  0  0  0  0 13  0  0
    0.6504   -2.2137   -2.1233 C   0  0  2  0  0  0  0  0  0 14  0  0
    0.3014   -3.0639   -2.7529 H   0  0  0  0  0  0  0  0  0 56  0  0
    2.1781   -2.2082   -2.0480 C   0  0  0  0  0  0  0  0  0 15  0  0
    2.5315   -3.2098   -1.7584 H   0  0  0  0  0  0  0  0  0 54  0  0
    2.4880   -1.5085   -1.2781 H   0  0  0  0  0  0  0  0  0 55  0  0
    2.8193   -1.8402   -3.3843 C   0  0  0  0  0  0  0  0  0 16  0  0
    2.6520   -2.6338   -4.1206 H   0  0  0  0  0  0  0  0  0 52  0  0
    3.8993   -1.6903   -3.2799 H   0  0  0  0  0  0  0  0  0 53  0  0
    2.2883   -0.6072   -3.9319 N   0  0  0  0  0  0  0  0  0 17  0  0
    3.0584    0.8167   -3.5764 S   0  0  2  0  0  6  0  0  0 18  0  0
    2.5247    1.8165   -4.4509 O   0  0  0  0  0  0  0  0  0 19  0  0
    4.4724    0.5298   -3.6196 O   0  0  0  0  0  0  0  0  0 20  0  0
    2.6014    1.2518   -1.9004 C   0  0  0  0  0  0  0  0  0 21  0  0
    3.2588    0.7015   -0.8251 C   0  0  0  0  0  0  0  0  0 22  0  0
    4.1362    0.1202   -1.0040 H   0  0  0  0  0  0  0  0  0 45  0  0
    2.8039    0.9147    0.4760 C   0  0  0  0  0  0  0  0  0 23  0  0
    3.3152    0.4842    1.3129 H   0  0  0  0  0  0  0  0  0 44  0  0
    1.6553    1.6780    0.6531 C   0  0  0  0  0  0  0  0  0 24  0  0
    1.0549    2.3167   -0.4486 C   0  0  0  0  0  0  0  0  0 25  0  0
    1.5124    2.0891   -1.7344 C   0  0  0  0  0  0  0  0  0 26  0  0
    1.0424    2.5502   -2.5865 H   0  0  0  0  0  0  0  0  0 27  0  0
   -0.1082    3.1349    0.0105 C   0  0  0  0  0  0  0  0  0 28  0  0
   -1.0405    2.6721   -0.2696 H   0  0  0  0  0  0  0  0  0 29  0  0
   -0.0886    4.1538   -0.4005 H   0  0  0  0  0  0  0  0  0 30  0  0
    0.0926    3.1520    1.5486 C   0  0  1  0  0  0  0  0  0 31  0  0
   -1.2242    3.1439    2.3035 C   0  0  0  0  0  0  0  0  0 39  0  0
   -1.7493    2.2094    2.1087 H   0  0  0  0  0  0  0  0  0 40  0  0
   -1.0617    3.2669    3.3653 H   0  0  0  0  0  0  0  0  0 41  0  0
   -1.8391    3.9617    1.9508 H   0  0  0  0  0  0  0  0  0 42  0  0
    0.6596    4.0434    1.8357 H   0  0  0  0  0  0  0  0  0 43  0  0
    0.9248    1.9749    1.8070 N   0  0  0  0  0  0  0  0  0 32  0  0
    0.8608    1.2756    2.9733 C   0  0  0  0  0  0  0  0  0 33  0  0
    0.1955    1.6714    3.9241 O   0  0  0  0  0  0  0  0  0 34  0  0
    1.5140   -0.0892    2.9997 C   0  0  0  0  0  0  0  0  0 35  0  0
    2.5968    0.0326    3.0957 H   0  0  0  0  0  0  0  0  0 36  0  0
    1.3049   -0.6509    2.0997 H   0  0  0  0  0  0  0  0  0 37  0  0
    1.1295   -0.6173    3.8597 H   0  0  0  0  0  0  0  0  0 38  0  0
    0.8435   -0.5834   -4.0473 C   0  0  0  0  0  0  0  0  0 46  0  0
    0.5872    0.4111   -4.4102 H   0  0  0  0  0  0  0  0  0 50  0  0
    0.5439   -1.3294   -4.7999 H   0  0  0  0  0  0  0  0  0 51  0  0
    0.1555   -0.8875   -2.7154 C   0  0  0  0  0  0  0  0  0 47  0  0
   -0.9274   -0.9179   -2.8734 H   0  0  0  0  0  0  0  0  0 48  0  0
    0.3660   -0.0961   -1.9984 H   0  0  0  0  0  0  0  0  0 49  0  0
   -1.4987   -3.3923   -1.4893 H   0  0  0  0  0  0  0  0  0 57  0  0
   -1.0983   -3.2498    1.4107 H   0  0  0  0  0  0  0  0  0 58  0  0
   -2.4374   -4.0524    0.5522 H   0  0  0  0  0  0  0  0  0 59  0  0
   -2.5146   -1.1907    1.9858 C   0  0  0  0  0  0  0  0  0  8  0  0
   -1.7870   -1.5055    2.7078 H   0  0  0  0  0  0  0  0  0  9  0  0
   -2.3960    1.1354    5.1185 H   0  0  0  0  0  0  0  0  0 63  0  0
   -1.2733    0.3567    3.9679 H   0  0  0  0  0  0  0  0  0 64  0  0
  1  2  1  0
  1  3  1  0
  3  4  1  0
  4  5  4  0
  5  6  1  0
  5  7  4  0
  7  8  1  0
  7  9  4  0
  9 10  1  0
  9 11  4  0
 11 12  1  0
 12 13  1  0
 13 14  1  0
 14 15  2  0
 14 16  1  0
 16 17  1  1
 16 18  1  0
 18 19  1  0
 18 20  1  0
 18 21  1  0
 21 22  1  0
 21 23  1  0
 21 24  1  0
 24 25  1  0
 25 26  2  0
 25 27  2  0
 25 28  1  1
 28 29  4  0
 29 30  1  0
 29 31  4  0
 31 32  1  0
 31 33  4  0
 33 34  4  0
 34 35  4  0
 35 36  1  0
 34 37  1  0
 37 38  1  0
 37 39  1  0
 37 40  1  0
 40 41  1  0
 41 42  1  0
 41 43  1  0
 41 44  1  0
 40 45  1  1
 40 46  1  0
 46 47  1  0
 47 48  2  0
 47 49  1  0
 49 50  1  0
 49 51  1  0
 49 52  1  0
 24 53  1  0
 53 54  1  0
 53 55  1  0
 53 56  1  0
 56 57  1  0
 56 58  1  0
 13 59  1  0
 12 60  1  0
 12 61  1  0
 11 62  4  0
 62 63  1  0
  1 64  1  0
  1 65  1  0
 62  4  4  0
 56 16  1  0
 35 28  4  0
 46 33  1  0
M  END
>  <sample_id>  (222)
train::COc1cccc(CNC(=O)C2CCN(S(=O)(=O)c3ccc4c(c3)CC(C)N4C(C)=O)CC2)c1__gen0002

>  <partition>  (222)
BAT_EXTERNAL_CONFIRM

>  <method>  (222)
BA_seed193

>  <candidate>  (222)
primary

$$$$
train::Cc1cccc(OCC2CCCN(Cc3nc(C4CC4)no3)C2)c1__gen0000
     RDKit          3D

 49 52  0  0  0  0  0  0  0  0999 V2000
    3.6830   -1.6818    0.2860 C   0  0  0  0  0  0  0  0  0  0  0  0
    2.7233   -1.0911    1.2841 C   0  0  0  0  0  0  0  0  0  1  0  0
    1.4878   -1.6811    1.4765 C   0  0  0  0  0  0  0  0  0  2  0  0
    1.2336   -2.5887    0.9303 H   0  0  0  0  0  0  0  0  0 45  0  0
    0.5498   -1.1278    2.3211 C   0  0  0  0  0  0  0  0  0  3  0  0
   -0.6485   -1.7996    2.4631 O   0  0  0  0  0  0  0  0  0 10  0  0
   -1.8593   -1.0252    2.4542 C   0  0  0  0  0  0  0  0  0 11  0  0
   -2.5249   -1.0461    1.0505 C   0  0  1  0  0  0  0  0  0 12  0  0
   -3.0468   -2.0063    0.9413 H   0  0  0  0  0  0  0  0  0 42  0  0
   -3.5107    0.0855    0.9510 C   0  0  0  0  0  0  0  0  0 13  0  0
   -2.9856    1.0310    1.1399 H   0  0  0  0  0  0  0  0  0 40  0  0
   -4.3013   -0.0148    1.6877 H   0  0  0  0  0  0  0  0  0 41  0  0
   -4.1035    0.1443   -0.4602 C   0  0  0  0  0  0  0  0  0 14  0  0
   -4.7479    1.0080   -0.5722 H   0  0  0  0  0  0  0  0  0 38  0  0
   -4.7109   -0.7572   -0.6371 H   0  0  0  0  0  0  0  0  0 39  0  0
   -2.9932    0.2030   -1.5023 C   0  0  0  0  0  0  0  0  0 15  0  0
   -3.4091    0.1945   -2.5201 H   0  0  0  0  0  0  0  0  0 36  0  0
   -2.4000    1.1246   -1.3907 H   0  0  0  0  0  0  0  0  0 37  0  0
   -2.1480   -0.9771   -1.3627 N   0  0  0  0  0  0  0  0  0 16  0  0
   -1.2821   -1.2527   -2.4633 C   0  0  0  0  0  0  0  0  0 20  0  0
   -0.0892   -0.3545   -2.5987 C   0  0  0  0  0  0  0  0  0 21  0  0
    0.3121    0.5947   -1.8234 N   0  0  0  0  0  0  0  0  0 22  0  0
    1.4717    1.0118   -2.4320 C   0  0  0  0  0  0  0  0  0 23  0  0
    2.3029    2.0873   -1.9057 C   0  0  2  0  0  0  0  0  0 26  0  0
    3.2555    2.1376   -2.3922 H   0  0  0  0  0  0  0  0  0 33  0  0
    2.1762    2.4136   -0.4313 C   0  0  0  0  0  0  0  0  0 27  0  0
    3.0896    2.6818    0.0890 H   0  0  0  0  0  0  0  0  0 31  0  0
    1.4930    1.8204    0.1387 H   0  0  0  0  0  0  0  0  0 32  0  0
    1.6429    3.3723   -1.4643 C   0  0  0  0  0  0  0  0  0 28  0  0
    0.5673    3.4284   -1.5758 H   0  0  0  0  0  0  0  0  0 29  0  0
    2.1723    4.2843   -1.6411 H   0  0  0  0  0  0  0  0  0 30  0  0
    1.7235    0.3507   -3.5254 N   0  0  0  0  0  0  0  0  0 24  0  0
    0.7251   -0.5455   -3.6471 O   0  0  0  0  0  0  0  0  0 25  0  0
   -0.9053   -2.2797   -2.3494 H   0  0  0  0  0  0  0  0  0 34  0  0
   -1.8553   -1.2242   -3.3905 H   0  0  0  0  0  0  0  0  0 35  0  0
   -1.4890   -0.9497   -0.0690 C   0  0  0  0  0  0  0  0  0 17  0  0
   -0.9055   -0.0224    0.0455 H   0  0  0  0  0  0  0  0  0 18  0  0
   -0.8003   -1.7961   -0.0014 H   0  0  0  0  0  0  0  0  0 19  0  0
   -2.5231   -1.4466    3.1967 H   0  0  0  0  0  0  0  0  0 43  0  0
   -1.6372    0.0164    2.7274 H   0  0  0  0  0  0  0  0  0 44  0  0
    0.8647    0.0242    3.0457 C   0  0  0  0  0  0  0  0  0  4  0  0
    0.1629    0.4675    3.7292 H   0  0  0  0  0  0  0  0  0  9  0  0
    2.1141    0.6100    2.8493 C   0  0  0  0  0  0  0  0  0  5  0  0
    2.3564    1.5053    3.4005 H   0  0  0  0  0  0  0  0  0  8  0  0
    3.0251    0.0764    1.9918 C   0  0  0  0  0  0  0  0  0  6  0  0
    3.9895    0.5421    1.8238 H   0  0  0  0  0  0  0  0  0  7  0  0
    3.9257   -2.7113    0.5776 H   0  0  0  0  0  0  0  0  0 46  0  0
    3.2185   -1.7112   -0.6974 H   0  0  0  0  0  0  0  0  0 47  0  0
    4.6101   -1.1252    0.2526 H   0  0  0  0  0  0  0  0  0 48  0  0
  1  2  1  0
  2  3  4  0
  3  4  1  0
  3  5  4  0
  5  6  1  0
  6  7  1  0
  7  8  1  0
  8  9  1  6
  8 10  1  0
 10 11  1  0
 10 12  1  0
 10 13  1  0
 13 14  1  0
 13 15  1  0
 13 16  1  0
 16 17  1  0
 16 18  1  0
 16 19  1  0
 19 20  1  0
 20 21  1  0
 21 22  4  0
 22 23  4  0
 23 24  1  0
 24 25  1  6
 24 26  1  0
 26 27  1  0
 26 28  1  0
 26 29  1  0
 29 30  1  0
 29 31  1  0
 23 32  4  0
 32 33  4  0
 20 34  1  0
 20 35  1  0
 19 36  1  0
 36 37  1  0
 36 38  1  0
  7 39  1  0
  7 40  1  0
  5 41  4  0
 41 42  1  0
 41 43  4  0
 43 44  1  0
 43 45  4  0
 45 46  1  0
  1 47  1  0
  1 48  1  0
  1 49  1  0
 45  2  4  0
 36  8  1  0
 33 21  4  0
 29 24  1  0
M  END
>  <sample_id>  (223)
train::Cc1cccc(OCC2CCCN(Cc3nc(C4CC4)no3)C2)c1__gen0000

>  <partition>  (223)
BAT_EXTERNAL_CONFIRM

>  <method>  (223)
BA_seed193

>  <candidate>  (223)
primary

$$$$
train::Cc1cccc(OCC2CCCN(Cc3nc(C4CC4)no3)C2)c1__gen0001
     RDKit          3D

 49 52  0  0  0  0  0  0  0  0999 V2000
   -0.9337   -4.6705    1.9643 C   0  0  0  0  0  0  0  0  0  0  0  0
   -0.1371   -3.6474    1.2357 C   0  0  0  0  0  0  0  0  0  1  0  0
   -0.5208   -3.1844   -0.0137 C   0  0  0  0  0  0  0  0  0  2  0  0
   -1.4165   -3.5682   -0.4827 H   0  0  0  0  0  0  0  0  0 45  0  0
    0.2148   -2.2161   -0.6896 C   0  0  0  0  0  0  0  0  0  3  0  0
   -0.2988   -1.8554   -1.9064 O   0  0  0  0  0  0  0  0  0 10  0  0
    0.3119   -0.8115   -2.6332 C   0  0  0  0  0  0  0  0  0 11  0  0
    0.0870    0.5554   -1.9683 C   0  0  2  0  0  0  0  0  0 12  0  0
    0.1602    0.4865   -0.8824 H   0  0  0  0  0  0  0  0  0 42  0  0
   -1.3035    1.1195   -2.2735 C   0  0  0  0  0  0  0  0  0 13  0  0
   -1.4437    1.2150   -3.3566 H   0  0  0  0  0  0  0  0  0 40  0  0
   -2.0789    0.4567   -1.8941 H   0  0  0  0  0  0  0  0  0 41  0  0
   -1.4594    2.4852   -1.6041 C   0  0  0  0  0  0  0  0  0 14  0  0
   -1.3892    2.3629   -0.5189 H   0  0  0  0  0  0  0  0  0 38  0  0
   -2.4363    2.9355   -1.8305 H   0  0  0  0  0  0  0  0  0 39  0  0
   -0.3506    3.4218   -2.0823 C   0  0  0  0  0  0  0  0  0 15  0  0
   -0.4744    3.6097   -3.1529 H   0  0  0  0  0  0  0  0  0 36  0  0
   -0.3916    4.3833   -1.5642 H   0  0  0  0  0  0  0  0  0 37  0  0
    0.9860    2.8833   -1.9082 N   0  0  0  0  0  0  0  0  0 16  0  0
    1.6520    3.1447   -0.6430 C   0  0  0  0  0  0  0  0  0 20  0  0
    1.3424    2.2401    0.5035 C   0  0  0  0  0  0  0  0  0 21  0  0
    0.1870    1.8831    0.9973 N   0  0  0  0  0  0  0  0  0 22  0  0
    0.5199    1.0878    2.0600 C   0  0  0  0  0  0  0  0  0 23  0  0
   -0.4368    0.4508    2.9357 C   0  0  2  0  0  0  0  0  0 26  0  0
   -0.0362    0.2142    3.9127 H   0  0  0  0  0  0  0  0  0 33  0  0
   -1.4194   -0.5406    2.3475 C   0  0  0  0  0  0  0  0  0 27  0  0
   -1.6521   -1.4156    2.9401 H   0  0  0  0  0  0  0  0  0 31  0  0
   -1.3524   -0.7392    1.2877 H   0  0  0  0  0  0  0  0  0 32  0  0
   -1.9091    0.8072    2.7808 C   0  0  0  0  0  0  0  0  0 28  0  0
   -2.1427    1.5139    2.0188 H   0  0  0  0  0  0  0  0  0 29  0  0
   -2.4943    0.8858    3.6787 H   0  0  0  0  0  0  0  0  0 30  0  0
    1.8143    0.9775    2.2130 N   0  0  0  0  0  0  0  0  0 24  0  0
    2.3595    1.7084    1.2038 O   0  0  0  0  0  0  0  0  0 25  0  0
    2.7340    3.0850   -0.8064 H   0  0  0  0  0  0  0  0  0 34  0  0
    1.4045    4.1629   -0.3402 H   0  0  0  0  0  0  0  0  0 35  0  0
    1.1391    1.5617   -2.4628 C   0  0  0  0  0  0  0  0  0 17  0  0
    1.0581    1.6569   -3.5506 H   0  0  0  0  0  0  0  0  0 18  0  0
    2.1481    1.2134   -2.2250 H   0  0  0  0  0  0  0  0  0 19  0  0
   -0.1512   -0.8244   -3.6196 H   0  0  0  0  0  0  0  0  0 43  0  0
    1.3878   -0.9929   -2.7574 H   0  0  0  0  0  0  0  0  0 44  0  0
    1.3640   -1.7028   -0.1008 C   0  0  0  0  0  0  0  0  0  4  0  0
    1.9795   -0.9780   -0.6045 H   0  0  0  0  0  0  0  0  0  9  0  0
    1.7661   -2.1842    1.1355 C   0  0  0  0  0  0  0  0  0  5  0  0
    2.6614   -1.7700    1.5842 H   0  0  0  0  0  0  0  0  0  8  0  0
    1.0220   -3.1316    1.8104 C   0  0  0  0  0  0  0  0  0  6  0  0
    1.3484   -3.4621    2.7871 H   0  0  0  0  0  0  0  0  0  7  0  0
   -1.4086   -4.2294    2.8368 H   0  0  0  0  0  0  0  0  0 46  0  0
   -0.2975   -5.4871    2.3143 H   0  0  0  0  0  0  0  0  0 47  0  0
   -1.7132   -5.0966    1.3242 H   0  0  0  0  0  0  0  0  0 48  0  0
  1  2  1  0
  2  3  4  0
  3  4  1  0
  3  5  4  0
  5  6  1  0
  6  7  1  0
  7  8  1  0
  8  9  1  6
  8 10  1  0
 10 11  1  0
 10 12  1  0
 10 13  1  0
 13 14  1  0
 13 15  1  0
 13 16  1  0
 16 17  1  0
 16 18  1  0
 16 19  1  0
 19 20  1  0
 20 21  1  0
 21 22  4  0
 22 23  4  0
 23 24  1  0
 24 25  1  1
 24 26  1  0
 26 27  1  0
 26 28  1  0
 26 29  1  0
 29 30  1  0
 29 31  1  0
 23 32  4  0
 32 33  4  0
 20 34  1  0
 20 35  1  0
 19 36  1  0
 36 37  1  0
 36 38  1  0
  7 39  1  0
  7 40  1  0
  5 41  4  0
 41 42  1  0
 41 43  4  0
 43 44  1  0
 43 45  4  0
 45 46  1  0
  1 47  1  0
  1 48  1  0
  1 49  1  0
 45  2  4  0
 36  8  1  0
 33 21  4  0
 29 24  1  0
M  END
>  <sample_id>  (224)
train::Cc1cccc(OCC2CCCN(Cc3nc(C4CC4)no3)C2)c1__gen0001

>  <partition>  (224)
BAT_EXTERNAL_CONFIRM

>  <method>  (224)
BA_seed193

>  <candidate>  (224)
primary

$$$$
train::Cc1cccc(OCC2CCCN(Cc3nc(C4CC4)no3)C2)c1__gen0002
     RDKit          3D

 49 52  0  0  0  0  0  0  0  0999 V2000
    1.8668   -0.4742    3.3459 C   0  0  0  0  0  0  0  0  0  0  0  0
    0.8786    0.5940    2.9378 C   0  0  0  0  0  0  0  0  0  1  0  0
    1.0044    1.1981    1.6915 C   0  0  0  0  0  0  0  0  0  2  0  0
    1.7895    0.8703    1.0483 H   0  0  0  0  0  0  0  0  0 45  0  0
    0.1147    2.1897    1.2956 C   0  0  0  0  0  0  0  0  0  3  0  0
    0.1697    2.8827    0.1158 O   0  0  0  0  0  0  0  0  0 10  0  0
    1.0829    2.4827   -0.8791 C   0  0  0  0  0  0  0  0  0 11  0  0
    0.5815    1.2411   -1.6351 C   0  0  1  0  0  0  0  0  0 12  0  0
    0.2327    0.5089   -0.9249 H   0  0  0  0  0  0  0  0  0 42  0  0
   -0.5932    1.6134   -2.5420 C   0  0  0  0  0  0  0  0  0 13  0  0
   -1.4097    2.0152   -1.9258 H   0  0  0  0  0  0  0  0  0 40  0  0
   -0.2854    2.3846   -3.2407 H   0  0  0  0  0  0  0  0  0 41  0  0
   -1.0761    0.3814   -3.2990 C   0  0  0  0  0  0  0  0  0 14  0  0
   -1.8639    0.6569   -3.9972 H   0  0  0  0  0  0  0  0  0 38  0  0
   -1.4433   -0.3649   -2.5986 H   0  0  0  0  0  0  0  0  0 39  0  0
    0.1124   -0.2176   -4.0754 C   0  0  0  0  0  0  0  0  0 15  0  0
    0.4443    0.5038   -4.8326 H   0  0  0  0  0  0  0  0  0 36  0  0
   -0.1973   -1.1256   -4.6047 H   0  0  0  0  0  0  0  0  0 37  0  0
    1.2619   -0.5315   -3.2611 N   0  0  0  0  0  0  0  0  0 16  0  0
    1.3125   -1.8191   -2.5881 C   0  0  0  0  0  0  0  0  0 20  0  0
    0.5963   -1.9068   -1.2862 C   0  0  0  0  0  0  0  0  0 21  0  0
   -0.6642   -1.7512   -1.0192 N   0  0  0  0  0  0  0  0  0 22  0  0
   -0.7545   -1.9785    0.3271 C   0  0  0  0  0  0  0  0  0 23  0  0
   -2.0266   -1.8892    1.0323 C   0  0  2  0  0  0  0  0  0 26  0  0
   -2.8076   -1.4467    0.4330 H   0  0  0  0  0  0  0  0  0 33  0  0
   -2.0324   -1.6163    2.5249 C   0  0  0  0  0  0  0  0  0 27  0  0
   -1.0652   -1.5171    2.9987 H   0  0  0  0  0  0  0  0  0 31  0  0
   -2.8003   -0.9968    2.9246 H   0  0  0  0  0  0  0  0  0 32  0  0
   -2.3858   -2.9878    2.0073 C   0  0  0  0  0  0  0  0  0 28  0  0
   -1.6704   -3.7856    2.1334 H   0  0  0  0  0  0  0  0  0 29  0  0
   -3.4210   -3.2853    2.0355 H   0  0  0  0  0  0  0  0  0 30  0  0
    0.3837   -2.3014    0.8542 N   0  0  0  0  0  0  0  0  0 24  0  0
    1.2947   -2.2513   -0.1691 O   0  0  0  0  0  0  0  0  0 25  0  0
    2.3568   -2.0739   -2.4054 H   0  0  0  0  0  0  0  0  0 34  0  0
    0.8759   -2.5459   -3.2787 H   0  0  0  0  0  0  0  0  0 35  0  0
    1.7007    0.6052   -2.4787 C   0  0  0  0  0  0  0  0  0 17  0  0
    2.0723    1.3514   -3.1924 H   0  0  0  0  0  0  0  0  0 18  0  0
    2.5361    0.2815   -1.8422 H   0  0  0  0  0  0  0  0  0 19  0  0
    1.1312    3.3425   -1.5653 H   0  0  0  0  0  0  0  0  0 43  0  0
    2.0757    2.3154   -0.4672 H   0  0  0  0  0  0  0  0  0 44  0  0
   -0.9174    2.5664    2.1609 C   0  0  0  0  0  0  0  0  0  4  0  0
   -1.5980    3.3369    1.8515 H   0  0  0  0  0  0  0  0  0  9  0  0
   -1.0218    1.9630    3.4025 C   0  0  0  0  0  0  0  0  0  5  0  0
   -1.8246    2.2757    4.0791 H   0  0  0  0  0  0  0  0  0  8  0  0
   -0.1326    0.9966    3.7952 C   0  0  0  0  0  0  0  0  0  6  0  0
   -0.2244    0.5203    4.7657 H   0  0  0  0  0  0  0  0  0  7  0  0
    2.0432   -1.1565    2.5149 H   0  0  0  0  0  0  0  0  0 46  0  0
    1.4859   -1.0404    4.1941 H   0  0  0  0  0  0  0  0  0 47  0  0
    2.8112   -0.0141    3.6390 H   0  0  0  0  0  0  0  0  0 48  0  0
  1  2  1  0
  2  3  4  0
  3  4  1  0
  3  5  4  0
  5  6  1  0
  6  7  1  0
  7  8  1  0
  8  9  1  1
  8 10  1  0
 10 11  1  0
 10 12  1  0
 10 13  1  0
 13 14  1  0
 13 15  1  0
 13 16  1  0
 16 17  1  0
 16 18  1  0
 16 19  1  0
 19 20  1  0
 20 21  1  0
 21 22  4  0
 22 23  4  0
 23 24  1  0
 24 25  1  6
 24 26  1  0
 26 27  1  0
 26 28  1  0
 26 29  1  0
 29 30  1  0
 29 31  1  0
 23 32  4  0
 32 33  4  0
 20 34  1  0
 20 35  1  0
 19 36  1  0
 36 37  1  0
 36 38  1  0
  7 39  1  0
  7 40  1  0
  5 41  4  0
 41 42  1  0
 41 43  4  0
 43 44  1  0
 43 45  4  0
 45 46  1  0
  1 47  1  0
  1 48  1  0
  1 49  1  0
 45  2  4  0
 36  8  1  0
 33 21  4  0
 29 24  1  0
M  END
>  <sample_id>  (225)
train::Cc1cccc(OCC2CCCN(Cc3nc(C4CC4)no3)C2)c1__gen0002

>  <partition>  (225)
BAT_EXTERNAL_CONFIRM

>  <method>  (225)
BA_seed193

>  <candidate>  (225)
primary

$$$$
train::CC(C)C(NC(=O)c1ccc([N+](=O)[O-])cc1Cl)C(=O)N1CCCC1__gen0000
     RDKit          3D

 44 45  0  0  0  0  0  0  0  0999 V2000
   -2.6720    0.2812   -2.0471 C   0  0  0  0  0  0  0  0  0  0  0  0
   -3.1726    1.1363   -1.5977 H   0  0  0  0  0  0  0  0  0  1  0  0
   -2.8294   -0.5857   -1.4047 H   0  0  0  0  0  0  0  0  0  2  0  0
   -3.1373    0.0602   -3.0053 H   0  0  0  0  0  0  0  0  0  3  0  0
   -1.1773    0.5579   -2.2140 C   0  0  1  0  0  0  0  0  0  4  0  0
   -0.9680    1.8298   -3.0697 C   0  0  0  0  0  0  0  0  0  5  0  0
    0.0930    1.9637   -3.2714 H   0  0  0  0  0  0  0  0  0  6  0  0
   -1.4874    1.7294   -4.0158 H   0  0  0  0  0  0  0  0  0  7  0  0
   -1.3406    2.6989   -2.5422 H   0  0  0  0  0  0  0  0  0  8  0  0
   -0.7145   -0.2669   -2.7710 H   0  0  0  0  0  0  0  0  0  9  0  0
   -0.4946    0.6458   -0.8384 C   0  0  1  0  0  0  0  0  0 10  0  0
   -0.4334   -0.6937   -0.2580 N   0  0  0  0  0  0  0  0  0 11  0  0
   -0.8804   -0.9729    0.9648 C   0  0  0  0  0  0  0  0  0 12  0  0
   -1.5128   -0.2007    1.6532 O   0  0  0  0  0  0  0  0  0 13  0  0
   -0.6143   -2.3901    1.4023 C   0  0  0  0  0  0  0  0  0 14  0  0
   -1.6860   -3.1494    1.8507 C   0  0  0  0  0  0  0  0  0 15  0  0
   -2.6644   -2.7041    1.8505 H   0  0  0  0  0  0  0  0  0 26  0  0
   -1.5003   -4.4499    2.2825 C   0  0  0  0  0  0  0  0  0 16  0  0
   -2.3258   -5.0632    2.6216 H   0  0  0  0  0  0  0  0  0 25  0  0
   -0.2167   -4.9814    2.2738 C   0  0  0  0  0  0  0  0  0 17  0  0
   -0.0118   -6.3338    2.7274 N   0  0  0  0  0  0  0  0  0 22  0  0
    1.1262   -6.7780    2.6756 O   0  0  0  0  0  0  0  0  0 23  0  0
   -0.9786   -6.9628    3.1168 O   0  0  0  0  0  0  0  0  0 24  0  0
    0.8768   -4.2348    1.8673 C   0  0  0  0  0  0  0  0  0 18  0  0
    1.8612   -4.6752    1.8879 H   0  0  0  0  0  0  0  0  0 21  0  0
    0.6811   -2.9374    1.4270 C   0  0  0  0  0  0  0  0  0 19  0  0
    2.0478   -1.9963    0.9490 Cl  0  0  0  0  0  0  0  0  0 20  0  0
    0.1424   -1.3320   -0.7851 H   0  0  0  0  0  0  0  0  0 27  0  0
    0.9591    1.1182   -0.9657 C   0  0  0  0  0  0  0  0  0 28  0  0
    1.7795    0.3541   -1.4208 O   0  0  0  0  0  0  0  0  0 29  0  0
    1.2496    2.3443   -0.5394 N   0  0  0  0  0  0  0  0  0 30  0  0
    0.3745    3.3248    0.0799 C   0  0  0  0  0  0  0  0  0 31  0  0
   -0.0012    2.9491    1.0378 H   0  0  0  0  0  0  0  0  0 41  0  0
   -0.4772    3.5479   -0.5693 H   0  0  0  0  0  0  0  0  0 42  0  0
    1.2671    4.5501    0.2864 C   0  0  0  0  0  0  0  0  0 32  0  0
    1.2700    5.1672   -0.6140 H   0  0  0  0  0  0  0  0  0 33  0  0
    0.9447    5.1580    1.1293 H   0  0  0  0  0  0  0  0  0 40  0  0
    2.6408    3.9319    0.5028 C   0  0  0  0  0  0  0  0  0 34  0  0
    2.7369    3.5357    1.5066 H   0  0  0  0  0  0  0  0  0 38  0  0
    3.4572    4.6321    0.3200 H   0  0  0  0  0  0  0  0  0 39  0  0
    2.6407    2.7887   -0.5235 C   0  0  0  0  0  0  0  0  0 35  0  0
    2.9226    3.1559   -1.5203 H   0  0  0  0  0  0  0  0  0 36  0  0
    3.3028    1.9650   -0.2722 H   0  0  0  0  0  0  0  0  0 37  0  0
   -1.0774    1.2821   -0.1672 H   0  0  0  0  0  0  0  0  0 43  0  0
  1  2  1  0
  1  3  1  0
  1  4  1  0
  1  5  1  0
  5  6  1  0
  6  7  1  0
  6  8  1  0
  6  9  1  0
  5 10  1  6
  5 11  1  0
 11 12  1  0
 12 13  1  0
 13 14  2  0
 13 15  1  0
 15 16  4  0
 16 17  1  0
 16 18  4  0
 18 19  1  0
 18 20  4  0
 20 21  1  0
 21 22  2  0
 21 23  1  0
 20 24  4  0
 24 25  1  0
 24 26  4  0
 26 27  1  0
 12 28  1  0
 11 29  1  0
 29 30  2  0
 29 31  1  0
 31 32  1  0
 32 33  1  0
 32 34  1  0
 32 35  1  0
 35 36  1  0
 35 37  1  0
 35 38  1  0
 38 39  1  0
 38 40  1  0
 38 41  1  0
 41 42  1  0
 41 43  1  0
 11 44  1  1
 26 15  4  0
 41 31  1  0
M  CHG  2  21   1  23  -1
M  END
>  <sample_id>  (226)
train::CC(C)C(NC(=O)c1ccc([N+](=O)[O-])cc1Cl)C(=O)N1CCCC1__gen0000

>  <partition>  (226)
BAT_EXTERNAL_CONFIRM

>  <method>  (226)
BA_seed193

>  <candidate>  (226)
primary

$$$$
train::CC(C)C(NC(=O)c1ccc([N+](=O)[O-])cc1Cl)C(=O)N1CCCC1__gen0001
     RDKit          3D

 44 45  0  0  0  0  0  0  0  0999 V2000
   -2.5358    0.5363    2.5615 C   0  0  0  0  0  0  0  0  0  0  0  0
   -3.4549    0.8041    3.0712 H   0  0  0  0  0  0  0  0  0  1  0  0
   -2.0040   -0.1855    3.1692 H   0  0  0  0  0  0  0  0  0  2  0  0
   -1.9298    1.4328    2.4558 H   0  0  0  0  0  0  0  0  0  3  0  0
   -2.8816   -0.0523    1.1943 C   0  0  1  0  0  0  0  0  0  4  0  0
   -3.5605    1.0015    0.3372 C   0  0  0  0  0  0  0  0  0  5  0  0
   -3.8138    0.6280   -0.6530 H   0  0  0  0  0  0  0  0  0  6  0  0
   -2.9131    1.8706    0.2135 H   0  0  0  0  0  0  0  0  0  7  0  0
   -4.4831    1.3316    0.8148 H   0  0  0  0  0  0  0  0  0  8  0  0
   -3.5821   -0.8931    1.3355 H   0  0  0  0  0  0  0  0  0  9  0  0
   -1.6535   -0.6453    0.4357 C   0  0  1  0  0  0  0  0  0 10  0  0
   -0.6379    0.3564    0.2307 N   0  0  0  0  0  0  0  0  0 11  0  0
   -0.2031    0.7104   -0.9825 C   0  0  0  0  0  0  0  0  0 12  0  0
   -0.6317    0.2479   -2.0300 O   0  0  0  0  0  0  0  0  0 13  0  0
    0.8351    1.8006   -0.9905 C   0  0  0  0  0  0  0  0  0 14  0  0
    0.6659    2.8529   -1.8776 C   0  0  0  0  0  0  0  0  0 15  0  0
   -0.2065    2.8468   -2.5182 H   0  0  0  0  0  0  0  0  0 26  0  0
    1.5835    3.8845   -1.9486 C   0  0  0  0  0  0  0  0  0 16  0  0
    1.4469    4.7219   -2.6237 H   0  0  0  0  0  0  0  0  0 25  0  0
    2.6960    3.8635   -1.1131 C   0  0  0  0  0  0  0  0  0 17  0  0
    3.6577    4.9204   -1.1835 N   0  0  0  0  0  0  0  0  0 22  0  0
    4.6174    4.8421   -0.4453 O   0  0  0  0  0  0  0  0  0 23  0  0
    3.4461    5.8347   -1.9536 O   0  0  0  0  0  0  0  0  0 24  0  0
    2.9136    2.7922   -0.2494 C   0  0  0  0  0  0  0  0  0 18  0  0
    3.7990    2.7772    0.3662 H   0  0  0  0  0  0  0  0  0 21  0  0
    1.9810    1.7689   -0.1831 C   0  0  0  0  0  0  0  0  0 19  0  0
    2.2912    0.4491    0.8771 Cl  0  0  0  0  0  0  0  0  0 20  0  0
   -0.2295    0.7543    1.0684 H   0  0  0  0  0  0  0  0  0 27  0  0
   -1.0174   -1.8221    1.2053 C   0  0  0  0  0  0  0  0  0 28  0  0
   -1.1596   -1.9819    2.4047 O   0  0  0  0  0  0  0  0  0 29  0  0
   -0.2753   -2.6566    0.4878 N   0  0  0  0  0  0  0  0  0 30  0  0
   -0.0061   -2.6625   -0.9502 C   0  0  0  0  0  0  0  0  0 31  0  0
   -0.9348   -2.7003   -1.5249 H   0  0  0  0  0  0  0  0  0 41  0  0
    0.5675   -1.7699   -1.2320 H   0  0  0  0  0  0  0  0  0 42  0  0
    0.8553   -3.9049   -1.1784 C   0  0  0  0  0  0  0  0  0 32  0  0
    1.5421   -3.7764   -2.0132 H   0  0  0  0  0  0  0  0  0 33  0  0
    0.2194   -4.7745   -1.3705 H   0  0  0  0  0  0  0  0  0 40  0  0
    1.5683   -4.0811    0.1629 C   0  0  0  0  0  0  0  0  0 34  0  0
    2.3851   -3.3734    0.2864 H   0  0  0  0  0  0  0  0  0 38  0  0
    1.9481   -5.0933    0.3073 H   0  0  0  0  0  0  0  0  0 39  0  0
    0.4588   -3.7265    1.1460 C   0  0  0  0  0  0  0  0  0 35  0  0
   -0.2026   -4.5807    1.3255 H   0  0  0  0  0  0  0  0  0 36  0  0
    0.8226   -3.3781    2.1155 H   0  0  0  0  0  0  0  0  0 37  0  0
   -1.9839   -0.9701   -0.5513 H   0  0  0  0  0  0  0  0  0 43  0  0
  1  2  1  0
  1  3  1  0
  1  4  1  0
  1  5  1  0
  5  6  1  0
  6  7  1  0
  6  8  1  0
  6  9  1  0
  5 10  1  1
  5 11  1  0
 11 12  1  0
 12 13  1  0
 13 14  2  0
 13 15  1  0
 15 16  4  0
 16 17  1  0
 16 18  4  0
 18 19  1  0
 18 20  4  0
 20 21  1  0
 21 22  2  0
 21 23  1  0
 20 24  4  0
 24 25  1  0
 24 26  4  0
 26 27  1  0
 12 28  1  0
 11 29  1  0
 29 30  2  0
 29 31  1  0
 31 32  1  0
 32 33  1  0
 32 34  1  0
 32 35  1  0
 35 36  1  0
 35 37  1  0
 35 38  1  0
 38 39  1  0
 38 40  1  0
 38 41  1  0
 41 42  1  0
 41 43  1  0
 11 44  1  6
 26 15  4  0
 41 31  1  0
M  CHG  2  21   1  23  -1
M  END
>  <sample_id>  (227)
train::CC(C)C(NC(=O)c1ccc([N+](=O)[O-])cc1Cl)C(=O)N1CCCC1__gen0001

>  <partition>  (227)
BAT_EXTERNAL_CONFIRM

>  <method>  (227)
BA_seed193

>  <candidate>  (227)
primary

$$$$
train::CC(C)C(NC(=O)c1ccc([N+](=O)[O-])cc1Cl)C(=O)N1CCCC1__gen0002
     RDKit          3D

 44 45  0  0  0  0  0  0  0  0999 V2000
    1.8043    1.5476   -3.2307 C   0  0  0  0  0  0  0  0  0  0  0  0
    1.0849    0.9838   -3.8224 H   0  0  0  0  0  0  0  0  0  1  0  0
    1.3800    2.5387   -3.0427 H   0  0  0  0  0  0  0  0  0  2  0  0
    2.7226    1.6665   -3.8012 H   0  0  0  0  0  0  0  0  0  3  0  0
    2.0877    0.8378   -1.9052 C   0  0  1  0  0  0  0  0  0  4  0  0
    3.1387    1.6133   -1.1025 C   0  0  0  0  0  0  0  0  0  5  0  0
    3.4094    1.0796   -0.1918 H   0  0  0  0  0  0  0  0  0  6  0  0
    2.7536    2.5890   -0.8160 H   0  0  0  0  0  0  0  0  0  7  0  0
    4.0373    1.7469   -1.7064 H   0  0  0  0  0  0  0  0  0  8  0  0
    2.4576   -0.1704   -2.1294 H   0  0  0  0  0  0  0  0  0  9  0  0
    0.7901    0.6891   -1.1110 C   0  0  2  0  0  0  0  0  0 10  0  0
    0.9880    0.0417    0.1739 N   0  0  0  0  0  0  0  0  0 11  0  0
    0.1999    0.2761    1.2265 C   0  0  0  0  0  0  0  0  0 12  0  0
   -0.6993    1.1036    1.2114 O   0  0  0  0  0  0  0  0  0 13  0  0
    0.4400   -0.5926    2.4166 C   0  0  0  0  0  0  0  0  0 14  0  0
   -0.6714   -1.1944    3.0090 C   0  0  0  0  0  0  0  0  0 15  0  0
   -1.6369   -1.0285    2.5689 H   0  0  0  0  0  0  0  0  0 26  0  0
   -0.5357   -1.9820    4.1299 C   0  0  0  0  0  0  0  0  0 16  0  0
   -1.3979   -2.4621    4.5883 H   0  0  0  0  0  0  0  0  0 25  0  0
    0.7215   -2.1588    4.6911 C   0  0  0  0  0  0  0  0  0 17  0  0
    0.8696   -2.9792    5.8686 N   0  0  0  0  0  0  0  0  0 22  0  0
   -0.1218   -3.5140    6.3068 O   0  0  0  0  0  0  0  0  0 23  0  0
    1.9847   -3.0774    6.3444 O   0  0  0  0  0  0  0  0  0 24  0  0
    1.8395   -1.5501    4.1471 C   0  0  0  0  0  0  0  0  0 18  0  0
    2.8077   -1.6868    4.6079 H   0  0  0  0  0  0  0  0  0 21  0  0
    1.6990   -0.7699    3.0131 C   0  0  0  0  0  0  0  0  0 19  0  0
    3.0910    0.0159    2.3750 Cl  0  0  0  0  0  0  0  0  0 20  0  0
    1.6065   -0.7624    0.1541 H   0  0  0  0  0  0  0  0  0 27  0  0
   -0.1896   -0.2133   -1.8891 C   0  0  0  0  0  0  0  0  0 28  0  0
    0.1822   -1.3321   -2.2000 O   0  0  0  0  0  0  0  0  0 29  0  0
   -1.4193    0.2473   -2.1512 N   0  0  0  0  0  0  0  0  0 30  0  0
   -2.0242    1.4957   -1.7056 C   0  0  0  0  0  0  0  0  0 31  0  0
   -1.9557    1.5799   -0.6095 H   0  0  0  0  0  0  0  0  0 41  0  0
   -1.5128    2.3545   -2.1580 H   0  0  0  0  0  0  0  0  0 42  0  0
   -3.4752    1.3979   -2.1520 C   0  0  0  0  0  0  0  0  0 32  0  0
   -4.1485    1.9084   -1.4742 H   0  0  0  0  0  0  0  0  0 33  0  0
   -3.5737    1.8535   -3.1488 H   0  0  0  0  0  0  0  0  0 40  0  0
   -3.7204   -0.1059   -2.2463 C   0  0  0  0  0  0  0  0  0 34  0  0
   -3.9056   -0.5346   -1.2656 H   0  0  0  0  0  0  0  0  0 38  0  0
   -4.5606   -0.3491   -2.8996 H   0  0  0  0  0  0  0  0  0 39  0  0
   -2.3972   -0.6153   -2.7725 C   0  0  0  0  0  0  0  0  0 35  0  0
   -2.3346   -0.5063   -3.8666 H   0  0  0  0  0  0  0  0  0 36  0  0
   -2.1788   -1.6610   -2.5411 H   0  0  0  0  0  0  0  0  0 37  0  0
    0.3635    1.6792   -0.8929 H   0  0  0  0  0  0  0  0  0 43  0  0
  1  2  1  0
  1  3  1  0
  1  4  1  0
  1  5  1  0
  5  6  1  0
  6  7  1  0
  6  8  1  0
  6  9  1  0
  5 10  1  6
  5 11  1  0
 11 12  1  0
 12 13  1  0
 13 14  2  0
 13 15  1  0
 15 16  4  0
 16 17  1  0
 16 18  4  0
 18 19  1  0
 18 20  4  0
 20 21  1  0
 21 22  2  0
 21 23  1  0
 20 24  4  0
 24 25  1  0
 24 26  4  0
 26 27  1  0
 12 28  1  0
 11 29  1  0
 29 30  2  0
 29 31  1  0
 31 32  1  0
 32 33  1  0
 32 34  1  0
 32 35  1  0
 35 36  1  0
 35 37  1  0
 35 38  1  0
 38 39  1  0
 38 40  1  0
 38 41  1  0
 41 42  1  0
 41 43  1  0
 11 44  1  6
 26 15  4  0
 41 31  1  0
M  CHG  2  21   1  23  -1
M  END
>  <sample_id>  (228)
train::CC(C)C(NC(=O)c1ccc([N+](=O)[O-])cc1Cl)C(=O)N1CCCC1__gen0002

>  <partition>  (228)
BAT_EXTERNAL_CONFIRM

>  <method>  (228)
BA_seed193

>  <candidate>  (228)
primary

$$$$
train::O=C(O)C(=O)_C(=C\c1ccsc1)c1ccc2ccccc2n1__gen0000
     RDKit          3D

 33 35  0  0  0  0  0  0  0  0999 V2000
   -2.7251   -1.7451    0.2234 O   0  0  0  0  0  0  0  0  0  0  0  0
   -1.8956   -1.1065    0.8409 C   0  0  0  0  0  0  0  0  0  1  0  0
   -1.0851   -1.6257    1.7742 O   0  0  0  0  0  0  0  0  0  2  0  0
   -1.2400   -2.5625    1.9221 H   0  0  0  0  0  0  0  0  0  3  0  0
   -1.8325    0.4159    0.8804 C   0  0  0  0  0  0  0  0  0  4  0  0
   -2.7933    1.0735    1.2450 O   0  0  0  0  0  0  0  0  0  5  0  0
   -0.5004    0.9746    0.5521 C   0  0  0  0  0  0  0  0  0  6  0  0
    0.0316    2.0916    1.0715 C   0  0  0  0  0  0  0  0  0  7  0  0
   -0.6083    3.1873    1.7900 C   0  0  0  0  0  0  0  0  0  8  0  0
   -1.9077    3.6458    1.7297 C   0  0  0  0  0  0  0  0  0  9  0  0
   -2.7245    3.2348    1.1720 H   0  0  0  0  0  0  0  0  0 15  0  0
   -2.1704    5.0335    2.6681 S   0  0  0  0  0  0  0  0  0 10  0  0
   -0.5486    5.0315    3.1937 C   0  0  0  0  0  0  0  0  0 11  0  0
   -0.1982    5.7869    3.8743 H   0  0  0  0  0  0  0  0  0 14  0  0
    0.1654    4.0322    2.6328 C   0  0  0  0  0  0  0  0  0 12  0  0
    1.2151    3.8687    2.8308 H   0  0  0  0  0  0  0  0  0 13  0  0
    1.1021    2.2608    1.0035 H   0  0  0  0  0  0  0  0  0 16  0  0
    0.2847    0.0655   -0.3127 C   0  0  0  0  0  0  0  0  0 17  0  0
   -0.2898   -1.0463   -0.5692 N   0  0  0  0  0  0  0  0  0 18  0  0
    0.2938   -1.9850   -1.3503 C   0  0  0  0  0  0  0  0  0 19  0  0
   -0.3990   -3.1786   -1.6347 C   0  0  0  0  0  0  0  0  0 20  0  0
   -1.3912   -3.3122   -1.2441 H   0  0  0  0  0  0  0  0  0 32  0  0
    0.2136   -4.1394   -2.4057 C   0  0  0  0  0  0  0  0  0 21  0  0
   -0.3148   -5.0564   -2.6501 H   0  0  0  0  0  0  0  0  0 31  0  0
    1.4938   -3.9321   -2.9448 C   0  0  0  0  0  0  0  0  0 22  0  0
    1.9318   -4.7034   -3.5484 H   0  0  0  0  0  0  0  0  0 30  0  0
    2.1599   -2.7766   -2.6930 C   0  0  0  0  0  0  0  0  0 23  0  0
    3.1572   -2.6140   -3.0800 H   0  0  0  0  0  0  0  0  0 29  0  0
    1.5821   -1.7745   -1.8976 C   0  0  0  0  0  0  0  0  0 24  0  0
    2.2122   -0.5386   -1.6003 C   0  0  0  0  0  0  0  0  0 25  0  0
    3.1911   -0.3461   -2.0081 H   0  0  0  0  0  0  0  0  0 28  0  0
    1.5678    0.3928   -0.8333 C   0  0  0  0  0  0  0  0  0 26  0  0
    2.0225    1.3473   -0.6322 H   0  0  0  0  0  0  0  0  0 27  0  0
  1  2  2  0
  2  3  1  0
  3  4  1  0
  2  5  1  0
  5  6  2  0
  5  7  1  0
  7  8  2  0
  8  9  1  0
  9 10  4  0
 10 11  1  0
 10 12  4  0
 12 13  4  0
 13 14  1  0
 13 15  4  0
 15 16  1  0
  8 17  1  0
  7 18  1  0
 18 19  4  0
 19 20  4  0
 20 21  4  0
 21 22  1  0
 21 23  4  0
 23 24  1  0
 23 25  4  0
 25 26  1  0
 25 27  4  0
 27 28  1  0
 27 29  4  0
 29 30  4  0
 30 31  1  0
 30 32  4  0
 32 33  1  0
 15  9  4  0
 32 18  4  0
 29 20  4  0
M  END
>  <sample_id>  (229)
train::O=C(O)C(=O)_C(=C\c1ccsc1)c1ccc2ccccc2n1__gen0000

>  <partition>  (229)
BAT_EXTERNAL_CONFIRM

>  <method>  (229)
BA_seed193

>  <candidate>  (229)
primary

$$$$
train::O=C(O)C(=O)_C(=C\c1ccsc1)c1ccc2ccccc2n1__gen0001
     RDKit          3D

 33 35  0  0  0  0  0  0  0  0999 V2000
    1.2914   -0.1499   -2.2335 O   0  0  0  0  0  0  0  0  0  0  0  0
    1.4580    0.8955   -1.6573 C   0  0  0  0  0  0  0  0  0  1  0  0
    1.8265    2.0143   -2.2745 O   0  0  0  0  0  0  0  0  0  2  0  0
    2.0797    2.6927   -1.6096 H   0  0  0  0  0  0  0  0  0  3  0  0
    1.5250    1.1118   -0.1081 C   0  0  0  0  0  0  0  0  0  4  0  0
    1.9698    2.1398    0.3399 O   0  0  0  0  0  0  0  0  0  5  0  0
    0.9709   -0.0538    0.6358 C   0  0  0  0  0  0  0  0  0  6  0  0
    1.6403   -0.9553    1.3365 C   0  0  0  0  0  0  0  0  0  7  0  0
    3.0564   -0.9639    1.6789 C   0  0  0  0  0  0  0  0  0  8  0  0
    3.9080    0.0999    1.7072 C   0  0  0  0  0  0  0  0  0  9  0  0
    3.7011    1.1253    1.4972 H   0  0  0  0  0  0  0  0  0 15  0  0
    5.4852   -0.3663    2.2096 S   0  0  0  0  0  0  0  0  0 10  0  0
    5.0039   -2.0028    2.3710 C   0  0  0  0  0  0  0  0  0 11  0  0
    5.7190   -2.7440    2.6722 H   0  0  0  0  0  0  0  0  0 14  0  0
    3.7044   -2.1805    2.0673 C   0  0  0  0  0  0  0  0  0 12  0  0
    3.2038   -3.1306    2.0921 H   0  0  0  0  0  0  0  0  0 13  0  0
    1.1192   -1.8343    1.7001 H   0  0  0  0  0  0  0  0  0 16  0  0
   -0.4704   -0.1492    0.3175 C   0  0  0  0  0  0  0  0  0 17  0  0
   -0.8509    0.6181   -0.6619 N   0  0  0  0  0  0  0  0  0 18  0  0
   -2.1352    0.6460   -1.0407 C   0  0  0  0  0  0  0  0  0 19  0  0
   -2.5189    1.4930   -2.0985 C   0  0  0  0  0  0  0  0  0 20  0  0
   -1.7611    2.0789   -2.5857 H   0  0  0  0  0  0  0  0  0 32  0  0
   -3.8390    1.5658   -2.4762 C   0  0  0  0  0  0  0  0  0 21  0  0
   -4.1379    2.2114   -3.2859 H   0  0  0  0  0  0  0  0  0 31  0  0
   -4.8167    0.8069   -1.8152 C   0  0  0  0  0  0  0  0  0 22  0  0
   -5.8458    0.8661   -2.1286 H   0  0  0  0  0  0  0  0  0 30  0  0
   -4.4651   -0.0204   -0.7784 C   0  0  0  0  0  0  0  0  0 23  0  0
   -5.2175   -0.6218   -0.2800 H   0  0  0  0  0  0  0  0  0 29  0  0
   -3.1156   -0.1336   -0.3665 C   0  0  0  0  0  0  0  0  0 24  0  0
   -2.7024   -0.9384    0.6876 C   0  0  0  0  0  0  0  0  0 25  0  0
   -3.4042   -1.5603    1.2112 H   0  0  0  0  0  0  0  0  0 28  0  0
   -1.3708   -0.9703    1.0305 C   0  0  0  0  0  0  0  0  0 26  0  0
   -1.0111   -1.5900    1.8461 H   0  0  0  0  0  0  0  0  0 27  0  0
  1  2  2  0
  2  3  1  0
  3  4  1  0
  2  5  1  0
  5  6  2  0
  5  7  1  0
  7  8  2  0
  8  9  1  0
  9 10  4  0
 10 11  1  0
 10 12  4  0
 12 13  4  0
 13 14  1  0
 13 15  4  0
 15 16  1  0
  8 17  1  0
  7 18  1  0
 18 19  4  0
 19 20  4  0
 20 21  4  0
 21 22  1  0
 21 23  4  0
 23 24  1  0
 23 25  4  0
 25 26  1  0
 25 27  4  0
 27 28  1  0
 27 29  4  0
 29 30  4  0
 30 31  1  0
 30 32  4  0
 32 33  1  0
 15  9  4  0
 32 18  4  0
 29 20  4  0
M  END
>  <sample_id>  (230)
train::O=C(O)C(=O)_C(=C\c1ccsc1)c1ccc2ccccc2n1__gen0001

>  <partition>  (230)
BAT_EXTERNAL_CONFIRM

>  <method>  (230)
BA_seed193

>  <candidate>  (230)
primary

$$$$
train::O=C(O)C(=O)_C(=C\c1ccsc1)c1ccc2ccccc2n1__gen0002
     RDKit          3D

 33 35  0  0  0  0  0  0  0  0999 V2000
    0.4801   -0.6100   -3.5956 O   0  0  0  0  0  0  0  0  0  0  0  0
   -0.3827   -1.2513   -3.0453 C   0  0  0  0  0  0  0  0  0  1  0  0
   -1.4663   -1.6603   -3.7186 O   0  0  0  0  0  0  0  0  0  2  0  0
   -1.9079   -2.3486   -3.1930 H   0  0  0  0  0  0  0  0  0  3  0  0
   -0.4064   -1.7910   -1.5953 C   0  0  0  0  0  0  0  0  0  4  0  0
   -0.9497   -2.8617   -1.4222 O   0  0  0  0  0  0  0  0  0  5  0  0
    0.1785   -0.9742   -0.5419 C   0  0  0  0  0  0  0  0  0  6  0  0
    1.0949   -1.4609    0.3205 C   0  0  0  0  0  0  0  0  0  7  0  0
    1.6779   -2.7815    0.2868 C   0  0  0  0  0  0  0  0  0  8  0  0
    2.0767   -3.4412    1.4293 C   0  0  0  0  0  0  0  0  0  9  0  0
    1.9910   -3.0888    2.4369 H   0  0  0  0  0  0  0  0  0 15  0  0
    2.7157   -4.9890    1.1228 S   0  0  0  0  0  0  0  0  0 10  0  0
    2.4839   -4.7670   -0.5877 C   0  0  0  0  0  0  0  0  0 11  0  0
    2.7741   -5.5562   -1.2524 H   0  0  0  0  0  0  0  0  0 14  0  0
    1.9332   -3.5770   -0.8663 C   0  0  0  0  0  0  0  0  0 12  0  0
    1.7429   -3.2405   -1.8711 H   0  0  0  0  0  0  0  0  0 13  0  0
    1.4148   -0.8254    1.1368 H   0  0  0  0  0  0  0  0  0 16  0  0
   -0.3137    0.4136   -0.2707 C   0  0  0  0  0  0  0  0  0 17  0  0
   -0.1637    0.8173    0.9872 N   0  0  0  0  0  0  0  0  0 18  0  0
   -0.5605    2.0546    1.3309 C   0  0  0  0  0  0  0  0  0 19  0  0
   -0.3709    2.4604    2.6587 C   0  0  0  0  0  0  0  0  0 20  0  0
    0.0744    1.7656    3.3503 H   0  0  0  0  0  0  0  0  0 32  0  0
   -0.7741    3.7194    3.0566 C   0  0  0  0  0  0  0  0  0 21  0  0
   -0.6332    4.0357    4.0790 H   0  0  0  0  0  0  0  0  0 31  0  0
   -1.3569    4.5965    2.1361 C   0  0  0  0  0  0  0  0  0 22  0  0
   -1.6553    5.5765    2.4571 H   0  0  0  0  0  0  0  0  0 30  0  0
   -1.5369    4.2248    0.8265 C   0  0  0  0  0  0  0  0  0 23  0  0
   -1.9950    4.9014    0.1231 H   0  0  0  0  0  0  0  0  0 29  0  0
   -1.1522    2.9534    0.3951 C   0  0  0  0  0  0  0  0  0 24  0  0
   -1.3179    2.4884   -0.9322 C   0  0  0  0  0  0  0  0  0 25  0  0
   -1.7744    3.1308   -1.6737 H   0  0  0  0  0  0  0  0  0 28  0  0
   -0.9131    1.2229   -1.2749 C   0  0  0  0  0  0  0  0  0 26  0  0
   -1.0074    0.8633   -2.2929 H   0  0  0  0  0  0  0  0  0 27  0  0
  1  2  2  0
  2  3  1  0
  3  4  1  0
  2  5  1  0
  5  6  2  0
  5  7  1  0
  7  8  2  0
  8  9  1  0
  9 10  4  0
 10 11  1  0
 10 12  4  0
 12 13  4  0
 13 14  1  0
 13 15  4  0
 15 16  1  0
  8 17  1  0
  7 18  1  0
 18 19  4  0
 19 20  4  0
 20 21  4  0
 21 22  1  0
 21 23  4  0
 23 24  1  0
 23 25  4  0
 25 26  1  0
 25 27  4  0
 27 28  1  0
 27 29  4  0
 29 30  4  0
 30 31  1  0
 30 32  4  0
 32 33  1  0
 15  9  4  0
 32 18  4  0
 29 20  4  0
M  END
>  <sample_id>  (231)
train::O=C(O)C(=O)_C(=C\c1ccsc1)c1ccc2ccccc2n1__gen0002

>  <partition>  (231)
BAT_EXTERNAL_CONFIRM

>  <method>  (231)
BA_seed193

>  <candidate>  (231)
primary

$$$$
train::CC(=O)OCC(=O)C1=CCC2C3CCC4=CC(=O)C=CC4(C)C3(F)C(OC(C)=O)CC12C__gen0000
     RDKit          3D

 61 64  0  0  0  0  0  0  0  0999 V2000
    1.0305    7.2756   -0.6694 C   0  0  0  0  0  0  0  0  0  0  0  0
    0.6518    5.9271   -1.2266 C   0  0  0  0  0  0  0  0  0  1  0  0
   -0.3308    5.2955   -0.9593 O   0  0  0  0  0  0  0  0  0  2  0  0
    1.5462    5.5196   -2.1471 O   0  0  0  0  0  0  0  0  0  3  0  0
    1.3226    4.2318   -2.6843 C   0  0  0  0  0  0  0  0  0  4  0  0
    0.3442    4.2340   -3.1771 H   0  0  0  0  0  0  0  0  0  5  0  0
    2.1143    4.0315   -3.3905 H   0  0  0  0  0  0  0  0  0  6  0  0
    1.3491    3.1755   -1.5688 C   0  0  0  0  0  0  0  0  0  7  0  0
    1.9039    3.3980   -0.5120 O   0  0  0  0  0  0  0  0  0  8  0  0
    0.7290    1.9030   -1.8940 C   0  0  0  0  0  0  0  0  0  9  0  0
    0.3051    1.4472   -3.0749 C   0  0  0  0  0  0  0  0  0 10  0  0
    0.3203    1.9788   -4.0228 H   0  0  0  0  0  0  0  0  0 57  0  0
   -0.2173    0.0451   -3.0061 C   0  0  0  0  0  0  0  0  0 11  0  0
    0.5187   -0.6740   -3.3597 H   0  0  0  0  0  0  0  0  0 12  0  0
   -1.1443   -0.0874   -3.5853 H   0  0  0  0  0  0  0  0  0 13  0  0
   -0.4549   -0.0856   -1.5085 C   0  0  1  0  0  0  0  0  0 14  0  0
   -1.3672    0.4596   -1.2774 H   0  0  0  0  0  0  0  0  0 56  0  0
   -0.5628   -1.4504   -0.8722 C   0  0  2  0  0  0  0  0  0 15  0  0
    0.4175   -1.9314   -0.9200 H   0  0  0  0  0  0  0  0  0 55  0  0
   -1.6008   -2.3158   -1.5720 C   0  0  0  0  0  0  0  0  0 16  0  0
   -1.2826   -2.4882   -2.6022 H   0  0  0  0  0  0  0  0  0 53  0  0
   -2.5580   -1.7820   -1.6016 H   0  0  0  0  0  0  0  0  0 54  0  0
   -1.8298   -3.6450   -0.8579 C   0  0  0  0  0  0  0  0  0 17  0  0
   -2.6178   -4.2038   -1.3413 H   0  0  0  0  0  0  0  0  0 51  0  0
   -0.9190   -4.2467   -0.8930 H   0  0  0  0  0  0  0  0  0 52  0  0
   -2.1790   -3.3555    0.5724 C   0  0  0  0  0  0  0  0  0 18  0  0
   -3.3833   -3.6317    1.0737 C   0  0  0  0  0  0  0  0  0 19  0  0
   -4.1594   -4.0895    0.4745 H   0  0  0  0  0  0  0  0  0 50  0  0
   -3.7970   -3.2779    2.4474 C   0  0  0  0  0  0  0  0  0 20  0  0
   -4.9187   -3.4551    2.8600 O   0  0  0  0  0  0  0  0  0 21  0  0
   -2.7236   -2.6817    3.2645 C   0  0  0  0  0  0  0  0  0 22  0  0
   -2.9705   -2.4747    4.2884 H   0  0  0  0  0  0  0  0  0 49  0  0
   -1.5318   -2.3818    2.7719 C   0  0  0  0  0  0  0  0  0 23  0  0
   -0.7675   -1.9594    3.4062 H   0  0  0  0  0  0  0  0  0 48  0  0
   -1.1197   -2.6156    1.3454 C   0  0  1  0  0  0  0  0  0 24  0  0
    0.1839   -3.4291    1.4030 C   0  0  0  0  0  0  0  0  0 25  0  0
    0.6389   -3.5371    0.4287 H   0  0  0  0  0  0  0  0  0 26  0  0
    0.8998   -2.9211    2.0509 H   0  0  0  0  0  0  0  0  0 27  0  0
   -0.0349   -4.4069    1.8186 H   0  0  0  0  0  0  0  0  0 28  0  0
   -0.9482   -1.2345    0.6289 C   0  0  2  0  0  0  0  0  0 29  0  0
   -2.1603   -0.5540    0.7122 F   0  0  0  0  0  0  0  0  0 30  0  0
    0.0152   -0.2596    1.3359 C   0  0  1  0  0  0  0  0  0 31  0  0
   -0.4409   -0.0276    2.3073 H   0  0  0  0  0  0  0  0  0 40  0  0
    1.2715   -0.8748    1.5928 O   0  0  0  0  0  0  0  0  0 41  0  0
    1.8121   -0.7308    2.8192 C   0  0  0  0  0  0  0  0  0 42  0  0
    1.2930   -0.1448    3.7358 O   0  0  0  0  0  0  0  0  0 43  0  0
    3.1502   -1.4175    2.8825 C   0  0  0  0  0  0  0  0  0 44  0  0
    3.8788   -0.8072    2.3535 H   0  0  0  0  0  0  0  0  0 45  0  0
    3.0825   -2.3888    2.4003 H   0  0  0  0  0  0  0  0  0 46  0  0
    3.4389   -1.5178    3.9231 H   0  0  0  0  0  0  0  0  0 47  0  0
    0.1940    1.0515    0.5302 C   0  0  0  0  0  0  0  0  0 32  0  0
    0.9194    1.6964    1.0328 H   0  0  0  0  0  0  0  0  0 33  0  0
   -0.7570    1.5625    0.4676 H   0  0  0  0  0  0  0  0  0 34  0  0
    0.6834    0.7636   -0.8823 C   0  0  2  0  0  0  0  0  0 35  0  0
    2.0757    0.1925   -0.9301 C   0  0  0  0  0  0  0  0  0 36  0  0
    2.2103   -0.5241   -0.1264 H   0  0  0  0  0  0  0  0  0 37  0  0
    2.8017    0.9965   -0.7896 H   0  0  0  0  0  0  0  0  0 38  0  0
    2.2644   -0.3144   -1.8834 H   0  0  0  0  0  0  0  0  0 39  0  0
    1.4733    7.8840   -1.4480 H   0  0  0  0  0  0  0  0  0 58  0  0
    1.7752    7.1035    0.0993 H   0  0  0  0  0  0  0  0  0 59  0  0
    0.1619    7.7504   -0.2429 H   0  0  0  0  0  0  0  0  0 60  0  0
  1  2  1  0
  2  3  2  0
  2  4  1  0
  4  5  1  0
  5  6  1  0
  5  7  1  0
  5  8  1  0
  8  9  2  0
  8 10  1  0
 10 11  2  0
 11 12  1  0
 11 13  1  0
 13 14  1  0
 13 15  1  0
 13 16  1  0
 16 17  1  1
 16 18  1  0
 18 19  1  1
 18 20  1  0
 20 21  1  0
 20 22  1  0
 20 23  1  0
 23 24  1  0
 23 25  1  0
 23 26  1  0
 26 27  2  0
 27 28  1  0
 27 29  1  0
 29 30  2  0
 29 31  1  0
 31 32  1  0
 31 33  2  0
 33 34  1  0
 33 35  1  0
 35 36  1  1
 36 37  1  0
 36 38  1  0
 36 39  1  0
 35 40  1  0
 40 41  1  6
 40 42  1  0
 42 43  1  6
 42 44  1  0
 44 45  1  0
 45 46  2  0
 45 47  1  0
 47 48  1  0
 47 49  1  0
 47 50  1  0
 42 51  1  0
 51 52  1  0
 51 53  1  0
 51 54  1  0
 54 55  1  1
 55 56  1  0
 55 57  1  0
 55 58  1  0
  1 59  1  0
  1 60  1  0
  1 61  1  0
 54 10  1  0
 54 16  1  0
 40 18  1  0
 35 26  1  0
M  END
>  <sample_id>  (232)
train::CC(=O)OCC(=O)C1=CCC2C3CCC4=CC(=O)C=CC4(C)C3(F)C(OC(C)=O)CC12C__gen0000

>  <partition>  (232)
BAT_EXTERNAL_CONFIRM

>  <method>  (232)
BA_seed193

>  <candidate>  (232)
primary

$$$$
train::CC(=O)OCC(=O)C1=CCC2C3CCC4=CC(=O)C=CC4(C)C3(F)C(OC(C)=O)CC12C__gen0001
     RDKit          3D

 61 64  0  0  0  0  0  0  0  0999 V2000
    2.6452   -5.1086   -0.2481 C   0  0  0  0  0  0  0  0  0  0  0  0
    1.5786   -4.8174    0.7835 C   0  0  0  0  0  0  0  0  0  1  0  0
    1.7224   -4.1871    1.7835 O   0  0  0  0  0  0  0  0  0  2  0  0
    0.4134   -5.3573    0.4056 O   0  0  0  0  0  0  0  0  0  3  0  0
   -0.6863   -5.1461    1.2681 C   0  0  0  0  0  0  0  0  0  4  0  0
   -1.5269   -5.6384    0.7927 H   0  0  0  0  0  0  0  0  0  5  0  0
   -0.4559   -5.6244    2.2240 H   0  0  0  0  0  0  0  0  0  6  0  0
   -1.0222   -3.6668    1.5429 C   0  0  0  0  0  0  0  0  0  7  0  0
   -1.4764   -3.3939    2.6372 O   0  0  0  0  0  0  0  0  0  8  0  0
   -0.8359   -2.7557    0.4266 C   0  0  0  0  0  0  0  0  0  9  0  0
   -0.6404   -3.0179   -0.8386 C   0  0  0  0  0  0  0  0  0 10  0  0
   -0.5214   -3.9668   -1.3197 H   0  0  0  0  0  0  0  0  0 57  0  0
   -0.6183   -1.7573   -1.6635 C   0  0  0  0  0  0  0  0  0 11  0  0
   -1.1358   -1.9089   -2.6040 H   0  0  0  0  0  0  0  0  0 12  0  0
    0.4092   -1.4632   -1.8835 H   0  0  0  0  0  0  0  0  0 13  0  0
   -1.3434   -0.7581   -0.7410 C   0  0  2  0  0  0  0  0  0 14  0  0
   -2.4030   -0.9478   -0.9187 H   0  0  0  0  0  0  0  0  0 56  0  0
   -1.1032    0.7458   -1.0105 C   0  0  2  0  0  0  0  0  0 15  0  0
   -1.8673    1.2969   -0.4398 H   0  0  0  0  0  0  0  0  0 55  0  0
   -1.2899    1.0683   -2.4794 C   0  0  0  0  0  0  0  0  0 16  0  0
   -2.2582    0.7417   -2.8211 H   0  0  0  0  0  0  0  0  0 53  0  0
   -0.5257    0.5503   -3.0672 H   0  0  0  0  0  0  0  0  0 54  0  0
   -1.1224    2.5537   -2.7570 C   0  0  0  0  0  0  0  0  0 17  0  0
   -1.9138    3.1054   -2.2538 H   0  0  0  0  0  0  0  0  0 51  0  0
   -1.2151    2.7599   -3.8216 H   0  0  0  0  0  0  0  0  0 52  0  0
    0.2185    3.0275   -2.2642 C   0  0  0  0  0  0  0  0  0 18  0  0
    1.0983    3.6013   -3.0621 C   0  0  0  0  0  0  0  0  0 19  0  0
    0.9090    3.7835   -4.1154 H   0  0  0  0  0  0  0  0  0 50  0  0
    2.4249    4.0729   -2.6418 C   0  0  0  0  0  0  0  0  0 20  0  0
    3.2199    4.6065   -3.4006 O   0  0  0  0  0  0  0  0  0 21  0  0
    2.7325    3.7875   -1.2242 C   0  0  0  0  0  0  0  0  0 22  0  0
    3.6950    4.1108   -0.8720 H   0  0  0  0  0  0  0  0  0 49  0  0
    1.8751    3.1676   -0.4344 C   0  0  0  0  0  0  0  0  0 23  0  0
    2.1703    2.9061    0.5710 H   0  0  0  0  0  0  0  0  0 48  0  0
    0.4658    2.7893   -0.8109 C   0  0  1  0  0  0  0  0  0 24  0  0
   -0.4760    3.6862    0.0120 C   0  0  0  0  0  0  0  0  0 25  0  0
   -1.5023    3.3409   -0.0471 H   0  0  0  0  0  0  0  0  0 26  0  0
   -0.4263    4.6985   -0.3858 H   0  0  0  0  0  0  0  0  0 27  0  0
   -0.1763    3.7100    1.0576 H   0  0  0  0  0  0  0  0  0 28  0  0
    0.2827    1.2418   -0.5357 C   0  0  2  0  0  0  0  0  0 29  0  0
    1.2574    0.6808   -1.3458 F   0  0  0  0  0  0  0  0  0 30  0  0
    0.5913    0.7631    0.9228 C   0  0  1  0  0  0  0  0  0 31  0  0
    1.6340    1.0411    1.0861 H   0  0  0  0  0  0  0  0  0 40  0  0
   -0.2763    1.1243    1.9929 O   0  0  0  0  0  0  0  0  0 41  0  0
    0.0393    2.1257    2.8067 C   0  0  0  0  0  0  0  0  0 42  0  0
    0.8713    2.9602    2.5741 O   0  0  0  0  0  0  0  0  0 43  0  0
   -0.8328    2.1043    4.0281 C   0  0  0  0  0  0  0  0  0 44  0  0
   -1.8725    2.1820    3.7438 H   0  0  0  0  0  0  0  0  0 45  0  0
   -0.5747    2.9625    4.6546 H   0  0  0  0  0  0  0  0  0 46  0  0
   -0.6724    1.1826    4.5818 H   0  0  0  0  0  0  0  0  0 47  0  0
    0.3932   -0.7034    1.0974 C   0  0  0  0  0  0  0  0  0 32  0  0
    0.5716   -0.9659    2.1497 H   0  0  0  0  0  0  0  0  0 33  0  0
    1.1721   -1.1874    0.4864 H   0  0  0  0  0  0  0  0  0 34  0  0
   -0.9852   -1.2417    0.6676 C   0  0  2  0  0  0  0  0  0 35  0  0
   -2.1224   -0.8872    1.6493 C   0  0  0  0  0  0  0  0  0 36  0  0
   -1.7360   -0.6779    2.6161 H   0  0  0  0  0  0  0  0  0 37  0  0
   -2.6517   -0.0250    1.2499 H   0  0  0  0  0  0  0  0  0 38  0  0
   -2.8417   -1.6966    1.7047 H   0  0  0  0  0  0  0  0  0 39  0  0
    2.3374   -4.7176   -1.2137 H   0  0  0  0  0  0  0  0  0 58  0  0
    2.7873   -6.1868   -0.3638 H   0  0  0  0  0  0  0  0  0 59  0  0
    3.5920   -4.6739    0.0680 H   0  0  0  0  0  0  0  0  0 60  0  0
  1  2  1  0
  2  3  2  0
  2  4  1  0
  4  5  1  0
  5  6  1  0
  5  7  1  0
  5  8  1  0
  8  9  2  0
  8 10  1  0
 10 11  2  0
 11 12  1  0
 11 13  1  0
 13 14  1  0
 13 15  1  0
 13 16  1  0
 16 17  1  1
 16 18  1  0
 18 19  1  1
 18 20  1  0
 20 21  1  0
 20 22  1  0
 20 23  1  0
 23 24  1  0
 23 25  1  0
 23 26  1  0
 26 27  2  0
 27 28  1  0
 27 29  1  0
 29 30  2  0
 29 31  1  0
 31 32  1  0
 31 33  2  0
 33 34  1  0
 33 35  1  0
 35 36  1  1
 36 37  1  0
 36 38  1  0
 36 39  1  0
 35 40  1  0
 40 41  1  6
 40 42  1  0
 42 43  1  6
 42 44  1  0
 44 45  1  0
 45 46  2  0
 45 47  1  0
 47 48  1  0
 47 49  1  0
 47 50  1  0
 42 51  1  0
 51 52  1  0
 51 53  1  0
 51 54  1  0
 54 55  1  1
 55 56  1  0
 55 57  1  0
 55 58  1  0
  1 59  1  0
  1 60  1  0
  1 61  1  0
 54 10  1  0
 54 16  1  0
 40 18  1  0
 35 26  1  0
M  END
>  <sample_id>  (233)
train::CC(=O)OCC(=O)C1=CCC2C3CCC4=CC(=O)C=CC4(C)C3(F)C(OC(C)=O)CC12C__gen0001

>  <partition>  (233)
BAT_EXTERNAL_CONFIRM

>  <method>  (233)
BA_seed193

>  <candidate>  (233)
primary

$$$$
train::CC(=O)OCC(=O)C1=CCC2C3CCC4=CC(=O)C=CC4(C)C3(F)C(OC(C)=O)CC12C__gen0002
     RDKit          3D

 61 64  0  0  0  0  0  0  0  0999 V2000
    2.0040    4.0144    5.7752 C   0  0  0  0  0  0  0  0  0  0  0  0
    2.3312    3.1329    4.6024 C   0  0  0  0  0  0  0  0  0  1  0  0
    2.6350    1.9796    4.6578 O   0  0  0  0  0  0  0  0  0  2  0  0
    2.2749    3.8387    3.4610 O   0  0  0  0  0  0  0  0  0  3  0  0
    2.4392    3.0686    2.2691 C   0  0  0  0  0  0  0  0  0  4  0  0
    2.3722    3.7644    1.4377 H   0  0  0  0  0  0  0  0  0  5  0  0
    3.4272    2.5972    2.2959 H   0  0  0  0  0  0  0  0  0  6  0  0
    1.3608    2.0072    2.1741 C   0  0  0  0  0  0  0  0  0  7  0  0
    0.3609    2.0661    2.8450 O   0  0  0  0  0  0  0  0  0  8  0  0
    1.6186    0.9985    1.1245 C   0  0  0  0  0  0  0  0  0  9  0  0
    2.3944    1.1696    0.0785 C   0  0  0  0  0  0  0  0  0 10  0  0
    3.0589    1.9819   -0.1380 H   0  0  0  0  0  0  0  0  0 57  0  0
    2.2801    0.0315   -0.8846 C   0  0  0  0  0  0  0  0  0 11  0  0
    3.2499   -0.3588   -1.1851 H   0  0  0  0  0  0  0  0  0 12  0  0
    1.7764    0.3812   -1.7818 H   0  0  0  0  0  0  0  0  0 13  0  0
    1.4729   -1.0357   -0.1465 C   0  0  2  0  0  0  0  0  0 14  0  0
    2.1791   -1.8537    0.0761 H   0  0  0  0  0  0  0  0  0 56  0  0
    0.4310   -1.7630   -0.9418 C   0  0  2  0  0  0  0  0  0 15  0  0
    0.0934   -2.4342   -0.1511 H   0  0  0  0  0  0  0  0  0 55  0  0
    0.9897   -2.5460   -2.1371 C   0  0  0  0  0  0  0  0  0 16  0  0
    1.1517   -3.5716   -1.7916 H   0  0  0  0  0  0  0  0  0 53  0  0
    1.9313   -2.1491   -2.4426 H   0  0  0  0  0  0  0  0  0 54  0  0
    0.0394   -2.5971   -3.3373 C   0  0  0  0  0  0  0  0  0 17  0  0
    0.3179   -3.4315   -3.9930 H   0  0  0  0  0  0  0  0  0 51  0  0
    0.1865   -1.6660   -3.9155 H   0  0  0  0  0  0  0  0  0 52  0  0
   -1.4118   -2.6961   -2.9982 C   0  0  0  0  0  0  0  0  0 18  0  0
   -2.2641   -3.3008   -3.8272 C   0  0  0  0  0  0  0  0  0 19  0  0
   -1.9412   -3.9425   -4.6167 H   0  0  0  0  0  0  0  0  0 50  0  0
   -3.6793   -3.0535   -3.7749 C   0  0  0  0  0  0  0  0  0 20  0  0
   -4.4876   -3.7536   -4.3907 O   0  0  0  0  0  0  0  0  0 21  0  0
   -4.0839   -1.8557   -2.9788 C   0  0  0  0  0  0  0  0  0 22  0  0
   -5.0747   -1.5294   -3.0912 H   0  0  0  0  0  0  0  0  0 49  0  0
   -3.1932   -1.2755   -2.1616 C   0  0  0  0  0  0  0  0  0 23  0  0
   -3.4749   -0.3312   -1.6952 H   0  0  0  0  0  0  0  0  0 48  0  0
   -1.9214   -1.9163   -1.7829 C   0  0  1  0  0  0  0  0  0 24  0  0
   -2.2643   -2.8312   -0.5870 C   0  0  0  0  0  0  0  0  0 25  0  0
   -3.0412   -3.5212   -0.8977 H   0  0  0  0  0  0  0  0  0 26  0  0
   -1.4088   -3.4226   -0.2761 H   0  0  0  0  0  0  0  0  0 27  0  0
   -2.6275   -2.2376    0.2386 H   0  0  0  0  0  0  0  0  0 28  0  0
   -0.7914   -0.8902   -1.3774 C   0  0  2  0  0  0  0  0  0 29  0  0
   -0.5765   -0.0317   -2.5576 F   0  0  0  0  0  0  0  0  0 30  0  0
   -1.1508    0.1474   -0.3455 C   0  0  2  0  0  0  0  0  0 31  0  0
   -2.2270    0.2867   -0.3550 H   0  0  0  0  0  0  0  0  0 40  0  0
   -0.5835    1.3854   -0.7970 O   0  0  0  0  0  0  0  0  0 41  0  0
   -1.1140    2.5174   -0.2925 C   0  0  0  0  0  0  0  0  0 42  0  0
   -2.0046    2.5679    0.5287 O   0  0  0  0  0  0  0  0  0 43  0  0
   -0.4772    3.6793   -0.9584 C   0  0  0  0  0  0  0  0  0 44  0  0
   -0.7507    4.5821   -0.4032 H   0  0  0  0  0  0  0  0  0 45  0  0
   -0.8172    3.7538   -1.9931 H   0  0  0  0  0  0  0  0  0 46  0  0
    0.6054    3.5717   -0.9181 H   0  0  0  0  0  0  0  0  0 47  0  0
   -0.6122   -0.2591    1.1170 C   0  0  0  0  0  0  0  0  0 32  0  0
   -1.0835   -1.1929    1.3178 H   0  0  0  0  0  0  0  0  0 33  0  0
   -0.8826    0.4659    1.8611 H   0  0  0  0  0  0  0  0  0 34  0  0
    0.8685   -0.3264    1.1462 C   0  0  2  0  0  0  0  0  0 35  0  0
    1.0429   -1.0643    2.4516 C   0  0  0  0  0  0  0  0  0 36  0  0
    0.9511   -0.4197    3.3012 H   0  0  0  0  0  0  0  0  0 37  0  0
    2.0428   -1.5410    2.5065 H   0  0  0  0  0  0  0  0  0 38  0  0
    0.3080   -1.8590    2.5033 H   0  0  0  0  0  0  0  0  0 39  0  0
    2.0782    3.4298    6.6920 H   0  0  0  0  0  0  0  0  0 58  0  0
    0.9899    4.3807    5.6606 H   0  0  0  0  0  0  0  0  0 59  0  0
    2.6816    4.8582    5.8003 H   0  0  0  0  0  0  0  0  0 60  0  0
  1  2  1  0
  2  3  2  0
  2  4  1  0
  4  5  1  0
  5  6  1  0
  5  7  1  0
  5  8  1  0
  8  9  2  0
  8 10  1  0
 10 11  2  0
 11 12  1  0
 11 13  1  0
 13 14  1  0
 13 15  1  0
 13 16  1  0
 16 17  1  1
 16 18  1  0
 18 19  1  1
 18 20  1  0
 20 21  1  0
 20 22  1  0
 20 23  1  0
 23 24  1  0
 23 25  1  0
 23 26  1  0
 26 27  2  0
 27 28  1  0
 27 29  1  0
 29 30  2  0
 29 31  1  0
 31 32  1  0
 31 33  2  0
 33 34  1  0
 33 35  1  0
 35 36  1  1
 36 37  1  0
 36 38  1  0
 36 39  1  0
 35 40  1  0
 40 41  1  6
 40 42  1  0
 42 43  1  1
 42 44  1  0
 44 45  1  0
 45 46  2  0
 45 47  1  0
 47 48  1  0
 47 49  1  0
 47 50  1  0
 42 51  1  0
 51 52  1  0
 51 53  1  0
 51 54  1  0
 54 55  1  1
 55 56  1  0
 55 57  1  0
 55 58  1  0
  1 59  1  0
  1 60  1  0
  1 61  1  0
 54 10  1  0
 54 16  1  0
 40 18  1  0
 35 26  1  0
M  END
>  <sample_id>  (234)
train::CC(=O)OCC(=O)C1=CCC2C3CCC4=CC(=O)C=CC4(C)C3(F)C(OC(C)=O)CC12C__gen0002

>  <partition>  (234)
BAT_EXTERNAL_CONFIRM

>  <method>  (234)
BA_seed193

>  <candidate>  (234)
primary

$$$$
train::CC(=O)Nc1cc(NC(C)=O)c(CC(C)C)s1__gen0000
     RDKit          3D

 35 35  0  0  0  0  0  0  0  0999 V2000
    0.1912   -3.8337    4.3520 C   0  0  0  0  0  0  0  0  0  0  0  0
    0.2760   -2.5742    3.5542 C   0  0  0  0  0  0  0  0  0  1  0  0
    0.3436   -1.4519    4.0339 O   0  0  0  0  0  0  0  0  0  2  0  0
    0.2770   -2.7476    2.2144 N   0  0  0  0  0  0  0  0  0  3  0  0
    0.3610   -1.6959    1.3096 C   0  0  0  0  0  0  0  0  0  4  0  0
    0.3579   -1.7738   -0.0498 C   0  0  0  0  0  0  0  0  0  5  0  0
    0.2943   -2.6881   -0.6151 H   0  0  0  0  0  0  0  0  0 30  0  0
    0.4651   -0.5061   -0.6475 C   0  0  0  0  0  0  0  0  0  6  0  0
    0.4801   -0.2843   -2.0380 N   0  0  0  0  0  0  0  0  0 22  0  0
    0.4529   -1.2188   -3.0073 C   0  0  0  0  0  0  0  0  0 23  0  0
    0.4108   -2.4192   -2.8189 O   0  0  0  0  0  0  0  0  0 24  0  0
    0.4924   -0.6136   -4.3946 C   0  0  0  0  0  0  0  0  0 25  0  0
    0.5046   -1.4064   -5.1355 H   0  0  0  0  0  0  0  0  0 26  0  0
   -0.3817    0.0069   -4.5603 H   0  0  0  0  0  0  0  0  0 27  0  0
    1.3858    0.0008   -4.5013 H   0  0  0  0  0  0  0  0  0 28  0  0
    0.5123    0.6879   -2.3189 H   0  0  0  0  0  0  0  0  0 29  0  0
    0.5504    0.5252    0.2666 C   0  0  0  0  0  0  0  0  0  7  0  0
    0.6546    2.0005    0.0268 C   0  0  0  0  0  0  0  0  0  9  0  0
    1.0635    2.1809   -0.9724 H   0  0  0  0  0  0  0  0  0 10  0  0
    1.3406    2.4125    0.7572 H   0  0  0  0  0  0  0  0  0 11  0  0
   -0.7106    2.6944    0.1650 C   0  0  1  0  0  0  0  0  0 12  0  0
   -0.5183    4.2145    0.0753 C   0  0  0  0  0  0  0  0  0 13  0  0
   -1.4707    4.7167    0.2019 H   0  0  0  0  0  0  0  0  0 14  0  0
    0.1658    4.5615    0.8462 H   0  0  0  0  0  0  0  0  0 15  0  0
   -0.1112    4.4759   -0.8982 H   0  0  0  0  0  0  0  0  0 16  0  0
   -1.6892    2.2188   -0.8930 C   0  0  0  0  0  0  0  0  0 17  0  0
   -1.8509    1.1419   -0.8192 H   0  0  0  0  0  0  0  0  0 18  0  0
   -2.6553    2.7029   -0.7551 H   0  0  0  0  0  0  0  0  0 19  0  0
   -1.3270    2.4481   -1.8863 H   0  0  0  0  0  0  0  0  0 20  0  0
   -1.1038    2.4470    1.1565 H   0  0  0  0  0  0  0  0  0 21  0  0
    0.5063   -0.0833    1.8837 S   0  0  0  0  0  0  0  0  0  8  0  0
    0.2248   -3.6773    1.8188 H   0  0  0  0  0  0  0  0  0 31  0  0
    0.1677   -3.5977    5.4154 H   0  0  0  0  0  0  0  0  0 32  0  0
    1.0477   -4.4749    4.1460 H   0  0  0  0  0  0  0  0  0 33  0  0
   -0.7077   -4.3896    4.0880 H   0  0  0  0  0  0  0  0  0 34  0  0
  1  2  1  0
  2  3  2  0
  2  4  1  0
  4  5  1  0
  5  6  4  0
  6  7  1  0
  6  8  4  0
  8  9  1  0
  9 10  1  0
 10 11  2  0
 10 12  1  0
 12 13  1  0
 12 14  1  0
 12 15  1  0
  9 16  1  0
  8 17  4  0
 17 18  1  0
 18 19  1  0
 18 20  1  0
 18 21  1  0
 21 22  1  0
 22 23  1  0
 22 24  1  0
 22 25  1  0
 21 26  1  0
 26 27  1  0
 26 28  1  0
 26 29  1  0
 21 30  1  1
 17 31  4  0
  4 32  1  0
  1 33  1  0
  1 34  1  0
  1 35  1  0
 31  5  4  0
M  END
>  <sample_id>  (235)
train::CC(=O)Nc1cc(NC(C)=O)c(CC(C)C)s1__gen0000

>  <partition>  (235)
BAT_EXTERNAL_CONFIRM

>  <method>  (235)
BA_seed193

>  <candidate>  (235)
primary

$$$$
train::CC(=O)Nc1cc(NC(C)=O)c(CC(C)C)s1__gen0001
     RDKit          3D

 35 35  0  0  0  0  0  0  0  0999 V2000
   -0.4589    1.1705   -5.6563 C   0  0  0  0  0  0  0  0  0  0  0  0
   -0.5984    1.2526   -4.1526 C   0  0  0  0  0  0  0  0  0  1  0  0
   -1.4153    1.9484   -3.5884 O   0  0  0  0  0  0  0  0  0  2  0  0
    0.2968    0.4945   -3.4706 N   0  0  0  0  0  0  0  0  0  3  0  0
    0.3360    0.4306   -2.0955 C   0  0  0  0  0  0  0  0  0  4  0  0
    1.1956   -0.2999   -1.3222 C   0  0  0  0  0  0  0  0  0  5  0  0
    1.9649   -0.9436   -1.7135 H   0  0  0  0  0  0  0  0  0 30  0  0
    0.9696   -0.1081    0.0527 C   0  0  0  0  0  0  0  0  0  6  0  0
    1.6940   -0.7494    1.0675 N   0  0  0  0  0  0  0  0  0 22  0  0
    2.6702   -1.6764    0.9184 C   0  0  0  0  0  0  0  0  0 23  0  0
    3.0715   -2.0958   -0.1460 O   0  0  0  0  0  0  0  0  0 24  0  0
    3.2258   -2.1448    2.2395 C   0  0  0  0  0  0  0  0  0 25  0  0
    4.0019   -2.8836    2.0699 H   0  0  0  0  0  0  0  0  0 26  0  0
    2.4363   -2.5929    2.8428 H   0  0  0  0  0  0  0  0  0 27  0  0
    3.6540   -1.3071    2.7920 H   0  0  0  0  0  0  0  0  0 28  0  0
    1.4364   -0.4883    2.0112 H   0  0  0  0  0  0  0  0  0 29  0  0
   -0.0515    0.7770    0.3249 C   0  0  0  0  0  0  0  0  0  7  0  0
   -0.6412    1.1820    1.6302 C   0  0  0  0  0  0  0  0  0  9  0  0
    0.0794    1.0201    2.4381 H   0  0  0  0  0  0  0  0  0 10  0  0
   -0.8612    2.2559    1.5936 H   0  0  0  0  0  0  0  0  0 11  0  0
   -1.9412    0.4185    1.9420 C   0  0  1  0  0  0  0  0  0 12  0  0
   -1.6769   -1.0715    2.1191 C   0  0  0  0  0  0  0  0  0 13  0  0
   -2.6124   -1.5947    2.2984 H   0  0  0  0  0  0  0  0  0 14  0  0
   -1.2063   -1.4903    1.2314 H   0  0  0  0  0  0  0  0  0 15  0  0
   -1.0241   -1.2395    2.9722 H   0  0  0  0  0  0  0  0  0 16  0  0
   -2.5925    1.0059    3.1941 C   0  0  0  0  0  0  0  0  0 17  0  0
   -3.5250    0.4895    3.4006 H   0  0  0  0  0  0  0  0  0 18  0  0
   -2.8144    2.0609    3.0559 H   0  0  0  0  0  0  0  0  0 19  0  0
   -1.9316    0.8962    4.0459 H   0  0  0  0  0  0  0  0  0 20  0  0
   -2.6178    0.5563    1.0885 H   0  0  0  0  0  0  0  0  0 21  0  0
   -0.7534    1.3725   -1.1500 S   0  0  0  0  0  0  0  0  0  8  0  0
    0.9696   -0.0799   -3.9693 H   0  0  0  0  0  0  0  0  0 31  0  0
   -1.2074    1.8156   -6.1174 H   0  0  0  0  0  0  0  0  0 32  0  0
   -0.6152    0.1460   -5.9851 H   0  0  0  0  0  0  0  0  0 33  0  0
    0.5426    1.4727   -5.9622 H   0  0  0  0  0  0  0  0  0 34  0  0
  1  2  1  0
  2  3  2  0
  2  4  1  0
  4  5  1  0
  5  6  4  0
  6  7  1  0
  6  8  4  0
  8  9  1  0
  9 10  1  0
 10 11  2  0
 10 12  1  0
 12 13  1  0
 12 14  1  0
 12 15  1  0
  9 16  1  0
  8 17  4  0
 17 18  1  0
 18 19  1  0
 18 20  1  0
 18 21  1  0
 21 22  1  0
 22 23  1  0
 22 24  1  0
 22 25  1  0
 21 26  1  0
 26 27  1  0
 26 28  1  0
 26 29  1  0
 21 30  1  6
 17 31  4  0
  4 32  1  0
  1 33  1  0
  1 34  1  0
  1 35  1  0
 31  5  4  0
M  END
>  <sample_id>  (236)
train::CC(=O)Nc1cc(NC(C)=O)c(CC(C)C)s1__gen0001

>  <partition>  (236)
BAT_EXTERNAL_CONFIRM

>  <method>  (236)
BA_seed193

>  <candidate>  (236)
primary

$$$$
train::CC(=O)Nc1cc(NC(C)=O)c(CC(C)C)s1__gen0002
     RDKit          3D

 35 35  0  0  0  0  0  0  0  0999 V2000
    5.6126    0.3131    0.0832 C   0  0  0  0  0  0  0  0  0  0  0  0
    4.1165    0.5183    0.1452 C   0  0  0  0  0  0  0  0  0  1  0  0
    3.5900    1.5479    0.4976 O   0  0  0  0  0  0  0  0  0  2  0  0
    3.4000   -0.5562   -0.2262 N   0  0  0  0  0  0  0  0  0  3  0  0
    2.0193   -0.5754   -0.2385 C   0  0  0  0  0  0  0  0  0  4  0  0
    1.2010   -1.6062   -0.5782 C   0  0  0  0  0  0  0  0  0  5  0  0
    1.5552   -2.5419   -0.9428 H   0  0  0  0  0  0  0  0  0 30  0  0
   -0.1620   -1.2784   -0.4617 C   0  0  0  0  0  0  0  0  0  6  0  0
   -1.0953   -2.2848   -0.8159 N   0  0  0  0  0  0  0  0  0 22  0  0
   -2.4436   -2.3159   -0.9036 C   0  0  0  0  0  0  0  0  0 23  0  0
   -3.2091   -1.4125   -0.6218 O   0  0  0  0  0  0  0  0  0 24  0  0
   -2.9502   -3.6762   -1.3553 C   0  0  0  0  0  0  0  0  0 25  0  0
   -4.0215   -3.6276   -1.4854 H   0  0  0  0  0  0  0  0  0 26  0  0
   -2.7106   -4.4471   -0.6132 H   0  0  0  0  0  0  0  0  0 27  0  0
   -2.4829   -3.9463   -2.2956 H   0  0  0  0  0  0  0  0  0 28  0  0
   -0.6313   -3.1505   -1.0431 H   0  0  0  0  0  0  0  0  0 29  0  0
   -0.3828    0.0072   -0.0309 C   0  0  0  0  0  0  0  0  0  7  0  0
   -1.6530    0.7263    0.2327 C   0  0  0  0  0  0  0  0  0  9  0  0
   -2.1895    0.2248    1.0418 H   0  0  0  0  0  0  0  0  0 10  0  0
   -2.3009    0.6665   -0.6568 H   0  0  0  0  0  0  0  0  0 11  0  0
   -1.4484    2.2135    0.5660 C   0  0  1  0  0  0  0  0  0 12  0  0
   -2.6749    3.0352    0.1646 C   0  0  0  0  0  0  0  0  0 13  0  0
   -3.5689    2.6335    0.6261 H   0  0  0  0  0  0  0  0  0 14  0  0
   -2.5637    4.0654    0.4736 H   0  0  0  0  0  0  0  0  0 15  0  0
   -2.8039    3.0033   -0.9308 H   0  0  0  0  0  0  0  0  0 16  0  0
   -1.1932    2.3920    2.0730 C   0  0  0  0  0  0  0  0  0 17  0  0
   -2.0470    2.0558    2.6532 H   0  0  0  0  0  0  0  0  0 18  0  0
   -0.3222    1.8034    2.3795 H   0  0  0  0  0  0  0  0  0 19  0  0
   -0.9911    3.4354    2.3086 H   0  0  0  0  0  0  0  0  0 20  0  0
   -0.5790    2.5930    0.0231 H   0  0  0  0  0  0  0  0  0 21  0  0
    1.1235    0.7951    0.2494 S   0  0  0  0  0  0  0  0  0  8  0  0
    3.8664   -1.4242   -0.5255 H   0  0  0  0  0  0  0  0  0 31  0  0
    6.1158    1.2314    0.3982 H   0  0  0  0  0  0  0  0  0 32  0  0
    5.9144    0.0755   -0.9310 H   0  0  0  0  0  0  0  0  0 33  0  0
    5.9105   -0.4933    0.7405 H   0  0  0  0  0  0  0  0  0 34  0  0
  1  2  1  0
  2  3  2  0
  2  4  1  0
  4  5  1  0
  5  6  4  0
  6  7  1  0
  6  8  4  0
  8  9  1  0
  9 10  1  0
 10 11  2  0
 10 12  1  0
 12 13  1  0
 12 14  1  0
 12 15  1  0
  9 16  1  0
  8 17  4  0
 17 18  1  0
 18 19  1  0
 18 20  1  0
 18 21  1  0
 21 22  1  0
 22 23  1  0
 22 24  1  0
 22 25  1  0
 21 26  1  0
 26 27  1  0
 26 28  1  0
 26 29  1  0
 21 30  1  6
 17 31  4  0
  4 32  1  0
  1 33  1  0
  1 34  1  0
  1 35  1  0
 31  5  4  0
M  END
>  <sample_id>  (237)
train::CC(=O)Nc1cc(NC(C)=O)c(CC(C)C)s1__gen0002

>  <partition>  (237)
BAT_EXTERNAL_CONFIRM

>  <method>  (237)
BA_seed193

>  <candidate>  (237)
primary

$$$$
train::O=C(CSc1n[nH]c(-c2cccs2)n1)N1CCN(S(=O)(=O)c2ccc3ccccc3c2)CC1__gen0000
     RDKit          3D

 54 58  0  0  0  0  0  0  0  0999 V2000
   -4.0863   -0.5399   -0.5629 O   0  0  0  0  0  0  0  0  0  0  0  0
   -3.4405   -1.5688   -0.6347 C   0  0  0  0  0  0  0  0  0  1  0  0
   -2.6071   -1.8553   -1.6765 N   0  0  0  0  0  0  0  0  0  2  0  0
   -2.3578   -0.8067   -2.6413 C   0  0  0  0  0  0  0  0  0  3  0  0
   -2.4842   -1.1942   -3.6471 H   0  0  0  0  0  0  0  0  0  4  0  0
   -3.0921   -0.0035   -2.4592 H   0  0  0  0  0  0  0  0  0 35  0  0
   -0.9433   -0.2735   -2.4552 C   0  0  0  0  0  0  0  0  0  5  0  0
   -0.6822    0.4358   -3.2488 H   0  0  0  0  0  0  0  0  0 33  0  0
   -0.8504    0.2210   -1.4845 H   0  0  0  0  0  0  0  0  0 34  0  0
   -0.0128   -1.3712   -2.5825 N   0  0  0  0  0  0  0  0  0  6  0  0
    1.5796   -0.9644   -2.8240 S   0  0  2  0  0  6  0  0  0  7  0  0
    1.6100   -0.0751   -3.9429 O   0  0  0  0  0  0  0  0  0  8  0  0
    2.3234   -2.1884   -2.8928 O   0  0  0  0  0  0  0  0  0  9  0  0
    2.0510   -0.0539   -1.3523 C   0  0  0  0  0  0  0  0  0 10  0  0
    2.4019   -0.7479   -0.2220 C   0  0  0  0  0  0  0  0  0 11  0  0
    2.4378   -1.8224   -0.2381 H   0  0  0  0  0  0  0  0  0 26  0  0
    2.7318   -0.0473    0.9560 C   0  0  0  0  0  0  0  0  0 12  0  0
    3.1102   -0.7097    2.1458 C   0  0  0  0  0  0  0  0  0 13  0  0
    3.0831   -1.7917    2.1567 H   0  0  0  0  0  0  0  0  0 25  0  0
    3.4393    0.0077    3.2564 C   0  0  0  0  0  0  0  0  0 14  0  0
    3.7084   -0.5038    4.1719 H   0  0  0  0  0  0  0  0  0 24  0  0
    3.4695    1.3959    3.2285 C   0  0  0  0  0  0  0  0  0 15  0  0
    3.7485    1.9514    4.1145 H   0  0  0  0  0  0  0  0  0 23  0  0
    3.1376    2.0718    2.0871 C   0  0  0  0  0  0  0  0  0 16  0  0
    3.1389    3.1507    2.0665 H   0  0  0  0  0  0  0  0  0 22  0  0
    2.7571    1.3792    0.9197 C   0  0  0  0  0  0  0  0  0 17  0  0
    2.3639    2.0495   -0.2651 C   0  0  0  0  0  0  0  0  0 18  0  0
    2.3689    3.1238   -0.2758 H   0  0  0  0  0  0  0  0  0 21  0  0
    2.0145    1.3345   -1.3801 C   0  0  0  0  0  0  0  0  0 19  0  0
    1.7351    1.8205   -2.2999 H   0  0  0  0  0  0  0  0  0 20  0  0
   -0.2509   -2.4345   -1.6288 C   0  0  0  0  0  0  0  0  0 27  0  0
    0.4717   -3.2228   -1.8455 H   0  0  0  0  0  0  0  0  0 31  0  0
   -0.1285   -2.0775   -0.5962 H   0  0  0  0  0  0  0  0  0 32  0  0
   -1.6878   -2.9491   -1.8216 C   0  0  0  0  0  0  0  0  0 28  0  0
   -1.8974   -3.7429   -1.1082 H   0  0  0  0  0  0  0  0  0 29  0  0
   -1.8011   -3.3580   -2.8355 H   0  0  0  0  0  0  0  0  0 30  0  0
   -3.6202   -2.6216    0.4585 C   0  0  0  0  0  0  0  0  0 36  0  0
   -4.3099   -2.2021    1.1686 H   0  0  0  0  0  0  0  0  0 37  0  0
   -3.9788   -3.5807    0.0810 H   0  0  0  0  0  0  0  0  0 38  0  0
   -2.0861   -3.0746    1.3249 S   0  0  0  0  0  0  0  0  0 39  0  0
   -1.3751   -1.4787    1.5497 C   0  0  0  0  0  0  0  0  0 40  0  0
   -0.2027   -1.3435    2.1221 N   0  0  0  0  0  0  0  0  0 41  0  0
   -0.0603    0.0103    2.0703 N   0  0  0  0  0  0  0  0  0 42  0  0
    0.7911    0.4546    2.3962 H   0  0  0  0  0  0  0  0  0 53  0  0
   -1.0911    0.5822    1.4482 C   0  0  0  0  0  0  0  0  0 43  0  0
   -1.2157    1.9719    1.1648 C   0  0  0  0  0  0  0  0  0 45  0  0
   -0.5922    3.0208    1.7987 C   0  0  0  0  0  0  0  0  0 46  0  0
    0.0486    2.9156    2.6604 H   0  0  0  0  0  0  0  0  0 52  0  0
   -0.9463    4.2678    1.2414 C   0  0  0  0  0  0  0  0  0 47  0  0
   -0.5799    5.2177    1.6042 H   0  0  0  0  0  0  0  0  0 51  0  0
   -1.7868    4.1403    0.1825 C   0  0  0  0  0  0  0  0  0 48  0  0
   -2.2032    4.9156   -0.4317 H   0  0  0  0  0  0  0  0  0 50  0  0
   -2.1771    2.4918   -0.1629 S   0  0  0  0  0  0  0  0  0 49  0  0
   -1.9745   -0.3269    1.1415 N   0  0  0  0  0  0  0  0  0 44  0  0
  1  2  2  0
  2  3  1  0
  3  4  1  0
  4  5  1  0
  4  6  1  0
  4  7  1  0
  7  8  1  0
  7  9  1  0
  7 10  1  0
 10 11  1  0
 11 12  2  0
 11 13  2  0
 11 14  1  1
 14 15  4  0
 15 16  1  0
 15 17  4  0
 17 18  4  0
 18 19  1  0
 18 20  4  0
 20 21  1  0
 20 22  4  0
 22 23  1  0
 22 24  4  0
 24 25  1  0
 24 26  4  0
 26 27  4  0
 27 28  1  0
 27 29  4  0
 29 30  1  0
 10 31  1  0
 31 32  1  0
 31 33  1  0
 31 34  1  0
 34 35  1  0
 34 36  1  0
  2 37  1  0
 37 38  1  0
 37 39  1  0
 37 40  1  0
 40 41  1  0
 41 42  4  0
 42 43  4  0
 43 44  1  0
 43 45  4  0
 45 46  1  0
 46 47  4  0
 47 48  1  0
 47 49  4  0
 49 50  1  0
 49 51  4  0
 51 52  1  0
 51 53  4  0
 45 54  4  0
 34  3  1  0
 54 41  4  0
 29 14  4  0
 53 46  4  0
 26 17  4  0
M  END
>  <sample_id>  (238)
train::O=C(CSc1n[nH]c(-c2cccs2)n1)N1CCN(S(=O)(=O)c2ccc3ccccc3c2)CC1__gen0000

>  <partition>  (238)
BAT_EXTERNAL_CONFIRM

>  <method>  (238)
BA_seed193

>  <candidate>  (238)
primary

$$$$
train::O=C(CSc1n[nH]c(-c2cccs2)n1)N1CCN(S(=O)(=O)c2ccc3ccccc3c2)CC1__gen0001
     RDKit          3D

 54 58  0  0  0  0  0  0  0  0999 V2000
    2.9710   -2.2342    3.0865 O   0  0  0  0  0  0  0  0  0  0  0  0
    2.6880   -1.4850    2.1701 C   0  0  0  0  0  0  0  0  0  1  0  0
    1.9118   -1.8891    1.1675 N   0  0  0  0  0  0  0  0  0  2  0  0
    1.5079   -1.0987    0.0141 C   0  0  0  0  0  0  0  0  0  3  0  0
    0.5040   -0.6797    0.1997 H   0  0  0  0  0  0  0  0  0  4  0  0
    2.2074   -0.2738   -0.1376 H   0  0  0  0  0  0  0  0  0 35  0  0
    1.4971   -1.9707   -1.2521 C   0  0  0  0  0  0  0  0  0  5  0  0
    2.5166   -2.2583   -1.5086 H   0  0  0  0  0  0  0  0  0 33  0  0
    1.0625   -1.4288   -2.0920 H   0  0  0  0  0  0  0  0  0 34  0  0
    0.7273   -3.1791   -1.0793 N   0  0  0  0  0  0  0  0  0  6  0  0
   -0.8662   -3.1473   -1.5294 S   0  0  2  0  0  6  0  0  0  7  0  0
   -1.4186   -4.4319   -1.2237 O   0  0  0  0  0  0  0  0  0  8  0  0
   -0.8867   -2.6973   -2.8962 O   0  0  0  0  0  0  0  0  0  9  0  0
   -1.6848   -1.9131   -0.5283 C   0  0  0  0  0  0  0  0  0 10  0  0
   -1.6863   -0.6109   -0.9578 C   0  0  0  0  0  0  0  0  0 11  0  0
   -1.2870   -0.3737   -1.9311 H   0  0  0  0  0  0  0  0  0 26  0  0
   -2.2326    0.4022   -0.1388 C   0  0  0  0  0  0  0  0  0 12  0  0
   -2.2710    1.7452   -0.5404 C   0  0  0  0  0  0  0  0  0 13  0  0
   -1.8830    2.0091   -1.5125 H   0  0  0  0  0  0  0  0  0 25  0  0
   -2.8067    2.6994    0.2827 C   0  0  0  0  0  0  0  0  0 14  0  0
   -2.8159    3.7295   -0.0400 H   0  0  0  0  0  0  0  0  0 24  0  0
   -3.3028    2.3633    1.5319 C   0  0  0  0  0  0  0  0  0 15  0  0
   -3.7182    3.1223    2.1740 H   0  0  0  0  0  0  0  0  0 23  0  0
   -3.3066    1.0479    1.9484 C   0  0  0  0  0  0  0  0  0 16  0  0
   -3.6999    0.7742    2.9151 H   0  0  0  0  0  0  0  0  0 22  0  0
   -2.7673    0.0324    1.1258 C   0  0  0  0  0  0  0  0  0 17  0  0
   -2.7599   -1.3250    1.5227 C   0  0  0  0  0  0  0  0  0 18  0  0
   -3.1767   -1.5856    2.4806 H   0  0  0  0  0  0  0  0  0 21  0  0
   -2.2219   -2.2796    0.7039 C   0  0  0  0  0  0  0  0  0 19  0  0
   -2.2131   -3.3204    0.9762 H   0  0  0  0  0  0  0  0  0 20  0  0
    1.1338   -3.9528    0.0631 C   0  0  0  0  0  0  0  0  0 27  0  0
    2.1373   -4.3415   -0.1354 H   0  0  0  0  0  0  0  0  0 31  0  0
    0.4390   -4.7849    0.1713 H   0  0  0  0  0  0  0  0  0 32  0  0
    1.1361   -3.0991    1.3394 C   0  0  0  0  0  0  0  0  0 28  0  0
    0.0902   -2.8329    1.5887 H   0  0  0  0  0  0  0  0  0 29  0  0
    1.5900   -3.6706    2.1532 H   0  0  0  0  0  0  0  0  0 30  0  0
    3.2064   -0.0637    2.1722 C   0  0  0  0  0  0  0  0  0 36  0  0
    4.0999   -0.0377    2.7773 H   0  0  0  0  0  0  0  0  0 37  0  0
    3.3589    0.3756    1.1892 H   0  0  0  0  0  0  0  0  0 38  0  0
    1.9804    1.0081    3.0517 S   0  0  0  0  0  0  0  0  0 39  0  0
    1.3911    2.0277    1.7720 C   0  0  0  0  0  0  0  0  0 40  0  0
    0.7105    3.1218    2.0925 N   0  0  0  0  0  0  0  0  0 41  0  0
    0.4033    3.6074    0.8691 N   0  0  0  0  0  0  0  0  0 42  0  0
   -0.1265    4.4633    0.7620 H   0  0  0  0  0  0  0  0  0 53  0  0
    0.8981    2.8091   -0.0967 C   0  0  0  0  0  0  0  0  0 43  0  0
    0.7396    2.9890   -1.4951 C   0  0  0  0  0  0  0  0  0 45  0  0
    1.2356    2.2087   -2.4983 C   0  0  0  0  0  0  0  0  0 46  0  0
    1.8536    1.3489   -2.3043 H   0  0  0  0  0  0  0  0  0 52  0  0
    0.8542    2.6529   -3.7743 C   0  0  0  0  0  0  0  0  0 47  0  0
    1.1382    2.1708   -4.6917 H   0  0  0  0  0  0  0  0  0 51  0  0
    0.1106    3.7953   -3.7293 C   0  0  0  0  0  0  0  0  0 48  0  0
   -0.3085    4.3470   -4.5443 H   0  0  0  0  0  0  0  0  0 50  0  0
   -0.1831    4.3252   -2.1231 S   0  0  0  0  0  0  0  0  0 49  0  0
    1.5231    1.7890    0.4594 N   0  0  0  0  0  0  0  0  0 44  0  0
  1  2  2  0
  2  3  1  0
  3  4  1  0
  4  5  1  0
  4  6  1  0
  4  7  1  0
  7  8  1  0
  7  9  1  0
  7 10  1  0
 10 11  1  0
 11 12  2  0
 11 13  2  0
 11 14  1  1
 14 15  4  0
 15 16  1  0
 15 17  4  0
 17 18  4  0
 18 19  1  0
 18 20  4  0
 20 21  1  0
 20 22  4  0
 22 23  1  0
 22 24  4  0
 24 25  1  0
 24 26  4  0
 26 27  4  0
 27 28  1  0
 27 29  4  0
 29 30  1  0
 10 31  1  0
 31 32  1  0
 31 33  1  0
 31 34  1  0
 34 35  1  0
 34 36  1  0
  2 37  1  0
 37 38  1  0
 37 39  1  0
 37 40  1  0
 40 41  1  0
 41 42  4  0
 42 43  4  0
 43 44  1  0
 43 45  4  0
 45 46  1  0
 46 47  4  0
 47 48  1  0
 47 49  4  0
 49 50  1  0
 49 51  4  0
 51 52  1  0
 51 53  4  0
 45 54  4  0
 34  3  1  0
 54 41  4  0
 29 14  4  0
 53 46  4  0
 26 17  4  0
M  END
>  <sample_id>  (239)
train::O=C(CSc1n[nH]c(-c2cccs2)n1)N1CCN(S(=O)(=O)c2ccc3ccccc3c2)CC1__gen0001

>  <partition>  (239)
BAT_EXTERNAL_CONFIRM

>  <method>  (239)
BA_seed193

>  <candidate>  (239)
primary

$$$$
train::O=C(CSc1n[nH]c(-c2cccs2)n1)N1CCN(S(=O)(=O)c2ccc3ccccc3c2)CC1__gen0002
     RDKit          3D

 54 58  0  0  0  0  0  0  0  0999 V2000
    3.4788   -0.5003    2.5878 O   0  0  0  0  0  0  0  0  0  0  0  0
    3.2847   -1.4126    1.8110 C   0  0  0  0  0  0  0  0  0  1  0  0
    2.2200   -2.2499    1.9211 N   0  0  0  0  0  0  0  0  0  2  0  0
    1.8204   -3.2884    1.0102 C   0  0  0  0  0  0  0  0  0  3  0  0
    2.6110   -3.4999    0.2877 H   0  0  0  0  0  0  0  0  0  4  0  0
    1.6054   -4.1988    1.5754 H   0  0  0  0  0  0  0  0  0 35  0  0
    0.5463   -2.8470    0.2774 C   0  0  0  0  0  0  0  0  0  5  0  0
    0.7464   -1.9584   -0.3283 H   0  0  0  0  0  0  0  0  0 33  0  0
    0.1614   -3.6429   -0.3668 H   0  0  0  0  0  0  0  0  0 34  0  0
   -0.4707   -2.5783    1.2697 N   0  0  0  0  0  0  0  0  0  6  0  0
   -2.0458   -2.5308    0.7385 S   0  0  2  0  0  6  0  0  0  7  0  0
   -2.8869   -2.6078    1.8976 O   0  0  0  0  0  0  0  0  0  8  0  0
   -2.1716   -3.5353   -0.2798 O   0  0  0  0  0  0  0  0  0  9  0  0
   -2.2376   -0.9154   -0.0091 C   0  0  0  0  0  0  0  0  0 10  0  0
   -1.8630   -0.7108   -1.3120 C   0  0  0  0  0  0  0  0  0 11  0  0
   -1.5149   -1.5470   -1.8983 H   0  0  0  0  0  0  0  0  0 26  0  0
   -2.0138    0.5628   -1.8962 C   0  0  0  0  0  0  0  0  0 12  0  0
   -1.6557    0.8213   -3.2394 C   0  0  0  0  0  0  0  0  0 13  0  0
   -1.2683    0.0109   -3.8314 H   0  0  0  0  0  0  0  0  0 25  0  0
   -1.8365    2.0692   -3.7707 C   0  0  0  0  0  0  0  0  0 14  0  0
   -1.5534    2.2529   -4.7957 H   0  0  0  0  0  0  0  0  0 24  0  0
   -2.3546    3.1054   -3.0069 C   0  0  0  0  0  0  0  0  0 15  0  0
   -2.4733    4.0886   -3.4283 H   0  0  0  0  0  0  0  0  0 23  0  0
   -2.6979    2.8964   -1.6986 C   0  0  0  0  0  0  0  0  0 16  0  0
   -3.0961    3.6934   -1.0840 H   0  0  0  0  0  0  0  0  0 22  0  0
   -2.5289    1.6265   -1.1078 C   0  0  0  0  0  0  0  0  0 17  0  0
   -2.8519    1.3812    0.2486 C   0  0  0  0  0  0  0  0  0 18  0  0
   -3.2331    2.1963    0.8498 H   0  0  0  0  0  0  0  0  0 21  0  0
   -2.6971    0.1324    0.7907 C   0  0  0  0  0  0  0  0  0 19  0  0
   -2.9908   -0.0828    1.8030 H   0  0  0  0  0  0  0  0  0 20  0  0
   -0.0908   -1.5473    2.2058 C   0  0  0  0  0  0  0  0  0 27  0  0
   -0.8978   -1.4534    2.9354 H   0  0  0  0  0  0  0  0  0 31  0  0
    0.0507   -0.5789    1.6983 H   0  0  0  0  0  0  0  0  0 32  0  0
    1.2064   -1.9537    2.9054 C   0  0  0  0  0  0  0  0  0 28  0  0
    1.0325   -2.8579    3.4951 H   0  0  0  0  0  0  0  0  0 29  0  0
    1.5772   -1.1677    3.5632 H   0  0  0  0  0  0  0  0  0 30  0  0
    4.3338   -1.7448    0.7528 C   0  0  0  0  0  0  0  0  0 36  0  0
    5.1222   -1.0014    0.8477 H   0  0  0  0  0  0  0  0  0 37  0  0
    4.7468   -2.7464    0.9121 H   0  0  0  0  0  0  0  0  0 38  0  0
    3.8027   -1.7881   -0.9781 S   0  0  0  0  0  0  0  0  0 39  0  0
    2.6596   -0.5007   -1.0713 C   0  0  0  0  0  0  0  0  0 40  0  0
    2.1154   -0.1992   -2.2140 N   0  0  0  0  0  0  0  0  0 41  0  0
    1.3253    0.8304   -1.9267 N   0  0  0  0  0  0  0  0  0 42  0  0
    0.6913    1.2779   -2.5889 H   0  0  0  0  0  0  0  0  0 53  0  0
    1.4201    1.1136   -0.6140 C   0  0  0  0  0  0  0  0  0 43  0  0
    0.6861    2.1310    0.0529 C   0  0  0  0  0  0  0  0  0 45  0  0
    0.2068    3.3225   -0.4354 C   0  0  0  0  0  0  0  0  0 46  0  0
    0.3621    3.6488   -1.4625 H   0  0  0  0  0  0  0  0  0 52  0  0
   -0.5061    4.0500    0.5273 C   0  0  0  0  0  0  0  0  0 47  0  0
   -0.9452    5.0162    0.3312 H   0  0  0  0  0  0  0  0  0 51  0  0
   -0.5276    3.4247    1.7395 C   0  0  0  0  0  0  0  0  0 48  0  0
   -1.0085    3.7614    2.6339 H   0  0  0  0  0  0  0  0  0 50  0  0
    0.3044    1.9323    1.7272 S   0  0  0  0  0  0  0  0  0 49  0  0
    2.3002    0.2999   -0.0520 N   0  0  0  0  0  0  0  0  0 44  0  0
  1  2  2  0
  2  3  1  0
  3  4  1  0
  4  5  1  0
  4  6  1  0
  4  7  1  0
  7  8  1  0
  7  9  1  0
  7 10  1  0
 10 11  1  0
 11 12  2  0
 11 13  2  0
 11 14  1  6
 14 15  4  0
 15 16  1  0
 15 17  4  0
 17 18  4  0
 18 19  1  0
 18 20  4  0
 20 21  1  0
 20 22  4  0
 22 23  1  0
 22 24  4  0
 24 25  1  0
 24 26  4  0
 26 27  4  0
 27 28  1  0
 27 29  4  0
 29 30  1  0
 10 31  1  0
 31 32  1  0
 31 33  1  0
 31 34  1  0
 34 35  1  0
 34 36  1  0
  2 37  1  0
 37 38  1  0
 37 39  1  0
 37 40  1  0
 40 41  1  0
 41 42  4  0
 42 43  4  0
 43 44  1  0
 43 45  4  0
 45 46  1  0
 46 47  4  0
 47 48  1  0
 47 49  4  0
 49 50  1  0
 49 51  4  0
 51 52  1  0
 51 53  4  0
 45 54  4  0
 34  3  1  0
 54 41  4  0
 29 14  4  0
 53 46  4  0
 26 17  4  0
M  END
>  <sample_id>  (240)
train::O=C(CSc1n[nH]c(-c2cccs2)n1)N1CCN(S(=O)(=O)c2ccc3ccccc3c2)CC1__gen0002

>  <partition>  (240)
BAT_EXTERNAL_CONFIRM

>  <method>  (240)
BA_seed193

>  <candidate>  (240)
primary

$$$$
train::COc1ccc(-c2onc3ccc(Cl)cc23)cc1OC__gen0000
     RDKit          3D

 32 34  0  0  0  0  0  0  0  0999 V2000
    1.7564   -2.2823    4.1052 C   0  0  0  0  0  0  0  0  0  0  0  0
    0.7529   -2.7180    4.0740 H   0  0  0  0  0  0  0  0  0  1  0  0
    2.3599   -2.2589    2.8386 O   0  0  0  0  0  0  0  0  0  2  0  0
    1.8286   -1.5887    1.7852 C   0  0  0  0  0  0  0  0  0  3  0  0
    2.5588   -1.6878    0.6135 C   0  0  0  0  0  0  0  0  0  4  0  0
    3.4618   -2.2793    0.6518 H   0  0  0  0  0  0  0  0  0 29  0  0
    2.1632   -1.0693   -0.5522 C   0  0  0  0  0  0  0  0  0  5  0  0
    2.7590   -1.1685   -1.4448 H   0  0  0  0  0  0  0  0  0 28  0  0
    0.9915   -0.3025   -0.5677 C   0  0  0  0  0  0  0  0  0  6  0  0
    0.5832    0.3514   -1.7889 C   0  0  0  0  0  0  0  0  0 15  0  0
   -0.6046    0.9516   -2.2054 C   0  0  0  0  0  0  0  0  0 16  0  0
   -1.8790    1.1870   -1.6901 C   0  0  0  0  0  0  0  0  0 17  0  0
   -2.1767    0.8474   -0.7083 H   0  0  0  0  0  0  0  0  0 27  0  0
   -2.7914    1.8453   -2.4878 C   0  0  0  0  0  0  0  0  0 18  0  0
   -4.3690    2.1467   -1.8560 Cl  0  0  0  0  0  0  0  0  0 26  0  0
   -2.4886    2.2965   -3.7702 C   0  0  0  0  0  0  0  0  0 19  0  0
   -3.2491    2.8147   -4.3337 H   0  0  0  0  0  0  0  0  0 25  0  0
   -1.2457    2.0775   -4.3227 C   0  0  0  0  0  0  0  0  0 20  0  0
   -0.9978    2.4170   -5.3118 H   0  0  0  0  0  0  0  0  0 24  0  0
   -0.2912    1.4170   -3.5428 C   0  0  0  0  0  0  0  0  0 21  0  0
    0.9455    1.0690   -3.8657 N   0  0  0  0  0  0  0  0  0 22  0  0
    1.4635    0.4260   -2.7933 O   0  0  0  0  0  0  0  0  0 23  0  0
    0.2644   -0.1813    0.6173 C   0  0  0  0  0  0  0  0  0  7  0  0
   -0.6150    0.4366    0.6056 H   0  0  0  0  0  0  0  0  0 14  0  0
    0.6537   -0.7989    1.7968 C   0  0  0  0  0  0  0  0  0  8  0  0
   -0.0662   -0.6927    2.9474 O   0  0  0  0  0  0  0  0  0  9  0  0
   -1.2419    0.0835    2.9652 C   0  0  0  0  0  0  0  0  0 10  0  0
   -1.0261    1.1329    2.7225 H   0  0  0  0  0  0  0  0  0 11  0  0
   -1.6165    0.0176    3.9837 H   0  0  0  0  0  0  0  0  0 12  0  0
   -1.9943   -0.3002    2.2674 H   0  0  0  0  0  0  0  0  0 13  0  0
    1.7014   -1.2798    4.5438 H   0  0  0  0  0  0  0  0  0 30  0  0
    2.4093   -2.9093    4.7234 H   0  0  0  0  0  0  0  0  0 31  0  0
  1  2  1  0
  1  3  1  0
  3  4  1  0
  4  5  4  0
  5  6  1  0
  5  7  4  0
  7  8  1  0
  7  9  4  0
  9 10  1  0
 10 11  4  0
 11 12  4  0
 12 13  1  0
 12 14  4  0
 14 15  1  0
 14 16  4  0
 16 17  1  0
 16 18  4  0
 18 19  1  0
 18 20  4  0
 20 21  4  0
 21 22  4  0
  9 23  4  0
 23 24  1  0
 23 25  4  0
 25 26  1  0
 26 27  1  0
 27 28  1  0
 27 29  1  0
 27 30  1  0
  1 31  1  0
  1 32  1  0
 25  4  4  0
 22 10  4  0
 20 11  4  0
M  END
>  <sample_id>  (241)
train::COc1ccc(-c2onc3ccc(Cl)cc23)cc1OC__gen0000

>  <partition>  (241)
BAT_EXTERNAL_CONFIRM

>  <method>  (241)
BA_seed193

>  <candidate>  (241)
primary

$$$$
train::COc1ccc(-c2onc3ccc(Cl)cc23)cc1OC__gen0001
     RDKit          3D

 32 34  0  0  0  0  0  0  0  0999 V2000
    3.4050   -2.0129    3.0217 C   0  0  0  0  0  0  0  0  0  0  0  0
    4.4291   -2.1567    3.3555 H   0  0  0  0  0  0  0  0  0  1  0  0
    3.4964   -1.1762    1.8980 O   0  0  0  0  0  0  0  0  0  2  0  0
    2.3424   -0.8250    1.2490 C   0  0  0  0  0  0  0  0  0  3  0  0
    1.0667   -1.2367    1.6169 C   0  0  0  0  0  0  0  0  0  4  0  0
    0.9195   -1.8816    2.4592 H   0  0  0  0  0  0  0  0  0 29  0  0
   -0.0394   -0.8287    0.8979 C   0  0  0  0  0  0  0  0  0  5  0  0
   -1.0173   -1.1877    1.1764 H   0  0  0  0  0  0  0  0  0 28  0  0
    0.1100    0.0015   -0.2118 C   0  0  0  0  0  0  0  0  0  6  0  0
   -1.0221    0.4502   -0.9978 C   0  0  0  0  0  0  0  0  0 15  0  0
   -2.4103    0.4537   -0.7891 C   0  0  0  0  0  0  0  0  0 16  0  0
   -3.2899    0.0701    0.2202 C   0  0  0  0  0  0  0  0  0 17  0  0
   -2.9466   -0.3311    1.1580 H   0  0  0  0  0  0  0  0  0 27  0  0
   -4.6380    0.2701    0.0040 C   0  0  0  0  0  0  0  0  0 18  0  0
   -5.7588   -0.1825    1.2415 Cl  0  0  0  0  0  0  0  0  0 26  0  0
   -5.1369    0.8297   -1.1711 C   0  0  0  0  0  0  0  0  0 19  0  0
   -6.2137    0.9523   -1.2792 H   0  0  0  0  0  0  0  0  0 25  0  0
   -4.2989    1.2055   -2.1952 C   0  0  0  0  0  0  0  0  0 20  0  0
   -4.6740    1.6476   -3.1099 H   0  0  0  0  0  0  0  0  0 24  0  0
   -2.9210    1.0374   -2.0045 C   0  0  0  0  0  0  0  0  0 21  0  0
   -1.9293    1.3481   -2.8246 N   0  0  0  0  0  0  0  0  0 22  0  0
   -0.7826    0.9876   -2.2125 O   0  0  0  0  0  0  0  0  0 23  0  0
    1.3967    0.3933   -0.5997 C   0  0  0  0  0  0  0  0  0  7  0  0
    1.5015    1.0373   -1.4589 H   0  0  0  0  0  0  0  0  0 14  0  0
    2.5118   -0.0053    0.1203 C   0  0  0  0  0  0  0  0  0  8  0  0
    3.7853    0.3507   -0.1742 O   0  0  0  0  0  0  0  0  0  9  0  0
    4.0247    1.1684   -1.2775 C   0  0  0  0  0  0  0  0  0 10  0  0
    5.1049    1.3167   -1.3245 H   0  0  0  0  0  0  0  0  0 11  0  0
    3.6874    0.6988   -2.2170 H   0  0  0  0  0  0  0  0  0 12  0  0
    3.5305    2.1459   -1.1672 H   0  0  0  0  0  0  0  0  0 13  0  0
    2.7990   -1.5558    3.8196 H   0  0  0  0  0  0  0  0  0 30  0  0
    2.9679   -2.9846    2.7764 H   0  0  0  0  0  0  0  0  0 31  0  0
  1  2  1  0
  1  3  1  0
  3  4  1  0
  4  5  4  0
  5  6  1  0
  5  7  4  0
  7  8  1  0
  7  9  4  0
  9 10  1  0
 10 11  4  0
 11 12  4  0
 12 13  1  0
 12 14  4  0
 14 15  1  0
 14 16  4  0
 16 17  1  0
 16 18  4  0
 18 19  1  0
 18 20  4  0
 20 21  4  0
 21 22  4  0
  9 23  4  0
 23 24  1  0
 23 25  4  0
 25 26  1  0
 26 27  1  0
 27 28  1  0
 27 29  1  0
 27 30  1  0
  1 31  1  0
  1 32  1  0
 25  4  4  0
 22 10  4  0
 20 11  4  0
M  END
>  <sample_id>  (242)
train::COc1ccc(-c2onc3ccc(Cl)cc23)cc1OC__gen0001

>  <partition>  (242)
BAT_EXTERNAL_CONFIRM

>  <method>  (242)
BA_seed193

>  <candidate>  (242)
primary

$$$$
train::COc1ccc(-c2onc3ccc(Cl)cc23)cc1OC__gen0002
     RDKit          3D

 32 34  0  0  0  0  0  0  0  0999 V2000
    3.6380   -0.1887    3.3875 C   0  0  0  0  0  0  0  0  0  0  0  0
    3.0788    0.3905    4.1340 H   0  0  0  0  0  0  0  0  0  1  0  0
    2.7855   -0.9942    2.6061 O   0  0  0  0  0  0  0  0  0  2  0  0
    1.8356   -0.3950    1.8279 C   0  0  0  0  0  0  0  0  0  3  0  0
    1.6602    0.9782    1.7784 C   0  0  0  0  0  0  0  0  0  4  0  0
    2.2822    1.6281    2.3740 H   0  0  0  0  0  0  0  0  0 29  0  0
    0.6923    1.5631    0.9879 C   0  0  0  0  0  0  0  0  0  5  0  0
    0.5822    2.6385    0.9623 H   0  0  0  0  0  0  0  0  0 28  0  0
   -0.1295    0.7711    0.1858 C   0  0  0  0  0  0  0  0  0  6  0  0
   -1.1200    1.3878   -0.6575 C   0  0  0  0  0  0  0  0  0 15  0  0
   -1.8524    0.9575   -1.7690 C   0  0  0  0  0  0  0  0  0 16  0  0
   -1.9395   -0.1988   -2.5508 C   0  0  0  0  0  0  0  0  0 17  0  0
   -1.3339   -1.0796   -2.3467 H   0  0  0  0  0  0  0  0  0 27  0  0
   -2.8432   -0.2039   -3.5872 C   0  0  0  0  0  0  0  0  0 18  0  0
   -2.9659   -1.6175   -4.5731 Cl  0  0  0  0  0  0  0  0  0 26  0  0
   -3.6359    0.8931   -3.9066 C   0  0  0  0  0  0  0  0  0 19  0  0
   -4.3120    0.8244   -4.7503 H   0  0  0  0  0  0  0  0  0 25  0  0
   -3.5802    2.0501   -3.1727 C   0  0  0  0  0  0  0  0  0 20  0  0
   -4.1754    2.9097   -3.4080 H   0  0  0  0  0  0  0  0  0 24  0  0
   -2.6771    2.0898   -2.0976 C   0  0  0  0  0  0  0  0  0 21  0  0
   -2.4201    3.0979   -1.2766 N   0  0  0  0  0  0  0  0  0 22  0  0
   -1.4847    2.6639   -0.4010 O   0  0  0  0  0  0  0  0  0 23  0  0
    0.0294   -0.6091    0.2498 C   0  0  0  0  0  0  0  0  0  7  0  0
   -0.6033   -1.2628   -0.3280 H   0  0  0  0  0  0  0  0  0 14  0  0
    0.9773   -1.1997    1.0508 C   0  0  0  0  0  0  0  0  0  8  0  0
    0.9879   -2.5731    0.9612 O   0  0  0  0  0  0  0  0  0  9  0  0
    1.8401   -3.3610    1.7698 C   0  0  0  0  0  0  0  0  0 10  0  0
    2.8950   -3.1831    1.5231 H   0  0  0  0  0  0  0  0  0 11  0  0
    1.5860   -4.3913    1.5212 H   0  0  0  0  0  0  0  0  0 12  0  0
    1.6659   -3.1922    2.8322 H   0  0  0  0  0  0  0  0  0 13  0  0
    4.3021   -0.8824    3.9018 H   0  0  0  0  0  0  0  0  0 30  0  0
    4.2347    0.4889    2.7716 H   0  0  0  0  0  0  0  0  0 31  0  0
  1  2  1  0
  1  3  1  0
  3  4  1  0
  4  5  4  0
  5  6  1  0
  5  7  4  0
  7  8  1  0
  7  9  4  0
  9 10  1  0
 10 11  4  0
 11 12  4  0
 12 13  1  0
 12 14  4  0
 14 15  1  0
 14 16  4  0
 16 17  1  0
 16 18  4  0
 18 19  1  0
 18 20  4  0
 20 21  4  0
 21 22  4  0
  9 23  4  0
 23 24  1  0
 23 25  4  0
 25 26  1  0
 26 27  1  0
 27 28  1  0
 27 29  1  0
 27 30  1  0
  1 31  1  0
  1 32  1  0
 25  4  4  0
 22 10  4  0
 20 11  4  0
M  END
>  <sample_id>  (243)
train::COc1ccc(-c2onc3ccc(Cl)cc23)cc1OC__gen0002

>  <partition>  (243)
BAT_EXTERNAL_CONFIRM

>  <method>  (243)
BA_seed193

>  <candidate>  (243)
primary

$$$$
train::C[C@H](NC(=O)N1C[C@@H]2C[C@H](C1)Cn1c2cccc1=O)C(=O)Nc1ccccc1F__gen0000
     RDKit          3D

 52 55  0  0  0  0  0  0  0  0999 V2000
   -1.3249   -3.6912   -2.8260 C   0  0  0  0  0  0  0  0  0  0  0  0
   -0.9740   -3.1757   -1.4304 C   0  0  2  0  0  0  0  0  0  1  0  0
   -1.1609   -1.7206   -1.3811 N   0  0  0  0  0  0  0  0  0  2  0  0
   -1.3095   -1.0841   -0.1835 C   0  0  0  0  0  0  0  0  0  3  0  0
   -1.4476   -1.7516    0.8387 O   0  0  0  0  0  0  0  0  0  4  0  0
   -1.4375    0.2925   -0.2085 N   0  0  0  0  0  0  0  0  0  5  0  0
   -1.7197    0.9229    1.0551 C   0  0  0  0  0  0  0  0  0  6  0  0
   -2.6613    1.4908    0.9630 H   0  0  0  0  0  0  0  0  0  7  0  0
   -1.8804    0.1278    1.7827 H   0  0  0  0  0  0  0  0  0 31  0  0
   -0.5804    1.8622    1.5103 C   0  0  2  0  0  0  0  0  0  8  0  0
   -0.2136    1.5294    2.4891 H   0  0  0  0  0  0  0  0  0 30  0  0
   -1.0673    3.3028    1.6865 C   0  0  0  0  0  0  0  0  0  9  0  0
   -0.3978    3.8490    2.3609 H   0  0  0  0  0  0  0  0  0 28  0  0
   -2.0578    3.3136    2.1345 H   0  0  0  0  0  0  0  0  0 29  0  0
   -1.1352    4.0352    0.4383 N   0  0  0  0  0  0  0  0  0 10  0  0
   -0.6807    3.5990   -0.7554 C   0  0  0  0  0  0  0  0  0 11  0  0
   -0.7554    4.3950   -1.8701 C   0  0  0  0  0  0  0  0  0 12  0  0
   -0.3684    4.0384   -2.8078 H   0  0  0  0  0  0  0  0  0 19  0  0
   -1.3096    5.6708   -1.7878 C   0  0  0  0  0  0  0  0  0 13  0  0
   -1.3567    6.2948   -2.6605 H   0  0  0  0  0  0  0  0  0 18  0  0
   -1.7958    6.1116   -0.5914 C   0  0  0  0  0  0  0  0  0 14  0  0
   -2.2155    7.1019   -0.4922 H   0  0  0  0  0  0  0  0  0 17  0  0
   -1.7299    5.3056    0.6020 C   0  0  0  0  0  0  0  0  0 15  0  0
   -2.1316    5.6595    1.6933 O   0  0  0  0  0  0  0  0  0 16  0  0
   -0.0672    2.2383   -0.8732 C   0  0  1  0  0  0  0  0  0 20  0  0
    0.7127    2.2777   -1.6452 H   0  0  0  0  0  0  0  0  0 24  0  0
    0.5411    1.8181    0.4612 C   0  0  0  0  0  0  0  0  0 21  0  0
    1.3708    2.4876    0.7345 H   0  0  0  0  0  0  0  0  0 22  0  0
    0.9607    0.8147    0.3771 H   0  0  0  0  0  0  0  0  0 23  0  0
   -1.0749    1.1455   -1.3104 C   0  0  0  0  0  0  0  0  0 25  0  0
   -0.6159    0.5446   -2.1056 H   0  0  0  0  0  0  0  0  0 26  0  0
   -1.9880    1.5898   -1.7032 H   0  0  0  0  0  0  0  0  0 27  0  0
   -0.8713   -1.2115   -2.1974 H   0  0  0  0  0  0  0  0  0 32  0  0
   -1.6401   -3.5857   -0.6496 H   0  0  0  0  0  0  0  0  0 33  0  0
    0.4753   -3.5436   -1.0760 C   0  0  0  0  0  0  0  0  0 34  0  0
    1.2940   -3.8965   -1.9047 O   0  0  0  0  0  0  0  0  0 35  0  0
    0.7329   -3.3494    0.2380 N   0  0  0  0  0  0  0  0  0 36  0  0
    1.9344   -3.5166    0.9207 C   0  0  0  0  0  0  0  0  0 37  0  0
    3.0479   -4.1455    0.3690 C   0  0  0  0  0  0  0  0  0 38  0  0
    2.9948   -4.5123   -0.6454 H   0  0  0  0  0  0  0  0  0 47  0  0
    4.2040   -4.2989    1.1137 C   0  0  0  0  0  0  0  0  0 39  0  0
    5.0674   -4.7706    0.6720 H   0  0  0  0  0  0  0  0  0 46  0  0
    4.2806   -3.8120    2.4066 C   0  0  0  0  0  0  0  0  0 40  0  0
    5.1850   -3.9308    2.9806 H   0  0  0  0  0  0  0  0  0 45  0  0
    3.1871   -3.1839    2.9785 C   0  0  0  0  0  0  0  0  0 41  0  0
    3.2099   -2.8049    3.9887 H   0  0  0  0  0  0  0  0  0 44  0  0
    2.0332   -3.0425    2.2261 C   0  0  0  0  0  0  0  0  0 42  0  0
    0.9757   -2.4087    2.7770 F   0  0  0  0  0  0  0  0  0 43  0  0
   -0.0297   -2.9381    0.7730 H   0  0  0  0  0  0  0  0  0 48  0  0
   -2.3342   -3.3945   -3.0915 H   0  0  0  0  0  0  0  0  0 49  0  0
   -1.2455   -4.7664   -2.8327 H   0  0  0  0  0  0  0  0  0 50  0  0
   -0.6291   -3.2836   -3.5414 H   0  0  0  0  0  0  0  0  0 51  0  0
  1  2  1  0
  2  3  1  0
  3  4  1  0
  4  5  2  0
  4  6  1  0
  6  7  1  0
  7  8  1  0
  7  9  1  0
  7 10  1  0
 10 11  1  1
 10 12  1  0
 12 13  1  0
 12 14  1  0
 12 15  1  0
 15 16  4  0
 16 17  4  0
 17 18  1  0
 17 19  4  0
 19 20  1  0
 19 21  4  0
 21 22  1  0
 21 23  4  0
 23 24  2  0
 16 25  1  0
 25 26  1  6
 25 27  1  0
 27 28  1  0
 27 29  1  0
 25 30  1  0
 30 31  1  0
 30 32  1  0
  3 33  1  0
  2 34  1  1
  2 35  1  0
 35 36  2  0
 35 37  1  0
 37 38  1  0
 38 39  4  0
 39 40  1  0
 39 41  4  0
 41 42  1  0
 41 43  4  0
 43 44  1  0
 43 45  4  0
 45 46  1  0
 45 47  4  0
 47 48  1  0
 37 49  1  0
  1 50  1  0
  1 51  1  0
  1 52  1  0
 30  6  1  0
 47 38  4  0
 27 10  1  0
 23 15  4  0
M  END
>  <sample_id>  (244)
train::C[C@H](NC(=O)N1C[C@@H]2C[C@H](C1)Cn1c2cccc1=O)C(=O)Nc1ccccc1F__gen0000

>  <partition>  (244)
BAT_EXTERNAL_CONFIRM

>  <method>  (244)
BA_seed193

>  <candidate>  (244)
primary

$$$$
train::C[C@H](NC(=O)N1C[C@@H]2C[C@H](C1)Cn1c2cccc1=O)C(=O)Nc1ccccc1F__gen0001
     RDKit          3D

 52 55  0  0  0  0  0  0  0  0999 V2000
   -2.0569   -4.0485   -1.1869 C   0  0  0  0  0  0  0  0  0  0  0  0
   -2.3508   -3.0556   -0.0582 C   0  0  2  0  0  0  0  0  0  1  0  0
   -2.2585   -1.6711   -0.4988 N   0  0  0  0  0  0  0  0  0  2  0  0
   -1.1832   -1.1006   -1.0879 C   0  0  0  0  0  0  0  0  0  3  0  0
   -0.2290   -1.7664   -1.4570 O   0  0  0  0  0  0  0  0  0  4  0  0
   -1.2415    0.2543   -1.3573 N   0  0  0  0  0  0  0  0  0  5  0  0
   -2.1181    1.1758   -0.6644 C   0  0  0  0  0  0  0  0  0  6  0  0
   -2.7995    0.6209   -0.0072 H   0  0  0  0  0  0  0  0  0  7  0  0
   -2.7374    1.6837   -1.4141 H   0  0  0  0  0  0  0  0  0 31  0  0
   -1.3037    2.1648    0.1783 C   0  0  2  0  0  0  0  0  0  8  0  0
   -1.7391    2.2450    1.1809 H   0  0  0  0  0  0  0  0  0 30  0  0
   -1.3723    3.5555   -0.4962 C   0  0  0  0  0  0  0  0  0  9  0  0
   -1.7614    4.3058    0.1896 H   0  0  0  0  0  0  0  0  0 28  0  0
   -2.0298    3.5353   -1.3729 H   0  0  0  0  0  0  0  0  0 29  0  0
   -0.0781    4.0353   -0.9541 N   0  0  0  0  0  0  0  0  0 10  0  0
    0.9076    3.1845   -1.3290 C   0  0  0  0  0  0  0  0  0 11  0  0
    2.0745    3.7113   -1.8472 C   0  0  0  0  0  0  0  0  0 12  0  0
    2.8609    3.0356   -2.1457 H   0  0  0  0  0  0  0  0  0 19  0  0
    2.2508    5.0920   -1.9275 C   0  0  0  0  0  0  0  0  0 13  0  0
    3.1744    5.4848   -2.3258 H   0  0  0  0  0  0  0  0  0 18  0  0
    1.2591    5.9356   -1.5007 C   0  0  0  0  0  0  0  0  0 14  0  0
    1.3549    7.0149   -1.5522 H   0  0  0  0  0  0  0  0  0 17  0  0
    0.0355    5.4256   -0.9613 C   0  0  0  0  0  0  0  0  0 15  0  0
   -0.8972    6.1258   -0.5582 O   0  0  0  0  0  0  0  0  0 16  0  0
    0.7491    1.7129   -1.0934 C   0  0  1  0  0  0  0  0  0 20  0  0
    1.7629    1.2984   -1.1460 H   0  0  0  0  0  0  0  0  0 24  0  0
    0.1428    1.6453    0.2973 C   0  0  0  0  0  0  0  0  0 21  0  0
    0.1651    0.6207    0.6655 H   0  0  0  0  0  0  0  0  0 22  0  0
    0.7281    2.2331    0.9928 H   0  0  0  0  0  0  0  0  0 23  0  0
   -0.1194    0.8546   -2.0482 C   0  0  0  0  0  0  0  0  0 25  0  0
    0.4594    0.0273   -2.4486 H   0  0  0  0  0  0  0  0  0 26  0  0
   -0.4889    1.4692   -2.8720 H   0  0  0  0  0  0  0  0  0 27  0  0
   -3.0204   -1.0918   -0.1879 H   0  0  0  0  0  0  0  0  0 32  0  0
   -3.3803   -3.2023    0.2944 H   0  0  0  0  0  0  0  0  0 33  0  0
   -1.4488   -3.3111    1.1820 C   0  0  0  0  0  0  0  0  0 34  0  0
   -1.9265   -3.6833    2.2422 O   0  0  0  0  0  0  0  0  0 35  0  0
   -0.1316   -3.1332    0.9401 N   0  0  0  0  0  0  0  0  0 36  0  0
    0.9172   -3.2360    1.8488 C   0  0  0  0  0  0  0  0  0 37  0  0
    0.8051   -3.7048    3.1526 C   0  0  0  0  0  0  0  0  0 38  0  0
   -0.1687   -4.0096    3.5153 H   0  0  0  0  0  0  0  0  0 47  0  0
    1.9196   -3.8061    3.9662 C   0  0  0  0  0  0  0  0  0 39  0  0
    1.8063   -4.1611    4.9735 H   0  0  0  0  0  0  0  0  0 46  0  0
    3.1643   -3.4338    3.4936 C   0  0  0  0  0  0  0  0  0 40  0  0
    4.0291   -3.4962    4.1397 H   0  0  0  0  0  0  0  0  0 45  0  0
    3.3092   -2.9622    2.1992 C   0  0  0  0  0  0  0  0  0 41  0  0
    4.2687   -2.6558    1.8151 H   0  0  0  0  0  0  0  0  0 44  0  0
    2.1889   -2.8723    1.4029 C   0  0  0  0  0  0  0  0  0 42  0  0
    2.3248   -2.3936    0.1492 F   0  0  0  0  0  0  0  0  0 43  0  0
    0.1366   -2.8033    0.0216 H   0  0  0  0  0  0  0  0  0 48  0  0
   -2.7624   -3.8989   -1.9884 H   0  0  0  0  0  0  0  0  0 49  0  0
   -2.1415   -5.0507   -0.7907 H   0  0  0  0  0  0  0  0  0 50  0  0
   -1.0500   -3.8999   -1.5629 H   0  0  0  0  0  0  0  0  0 51  0  0
  1  2  1  0
  2  3  1  0
  3  4  1  0
  4  5  2  0
  4  6  1  0
  6  7  1  0
  7  8  1  0
  7  9  1  0
  7 10  1  0
 10 11  1  1
 10 12  1  0
 12 13  1  0
 12 14  1  0
 12 15  1  0
 15 16  4  0
 16 17  4  0
 17 18  1  0
 17 19  4  0
 19 20  1  0
 19 21  4  0
 21 22  1  0
 21 23  4  0
 23 24  2  0
 16 25  1  0
 25 26  1  1
 25 27  1  0
 27 28  1  0
 27 29  1  0
 25 30  1  0
 30 31  1  0
 30 32  1  0
  3 33  1  0
  2 34  1  1
  2 35  1  0
 35 36  2  0
 35 37  1  0
 37 38  1  0
 38 39  4  0
 39 40  1  0
 39 41  4  0
 41 42  1  0
 41 43  4  0
 43 44  1  0
 43 45  4  0
 45 46  1  0
 45 47  4  0
 47 48  1  0
 37 49  1  0
  1 50  1  0
  1 51  1  0
  1 52  1  0
 30  6  1  0
 47 38  4  0
 27 10  1  0
 23 15  4  0
M  END
>  <sample_id>  (245)
train::C[C@H](NC(=O)N1C[C@@H]2C[C@H](C1)Cn1c2cccc1=O)C(=O)Nc1ccccc1F__gen0001

>  <partition>  (245)
BAT_EXTERNAL_CONFIRM

>  <method>  (245)
BA_seed193

>  <candidate>  (245)
primary

$$$$
train::C[C@H](NC(=O)N1C[C@@H]2C[C@H](C1)Cn1c2cccc1=O)C(=O)Nc1ccccc1F__gen0002
     RDKit          3D

 52 55  0  0  0  0  0  0  0  0999 V2000
    1.7328    3.5552   -0.5670 C   0  0  0  0  0  0  0  0  0  0  0  0
    2.1382    2.0915   -0.5283 C   0  0  2  0  0  0  0  0  0  1  0  0
    1.3609    1.2682   -1.4545 N   0  0  0  0  0  0  0  0  0  2  0  0
    0.0119    1.3059   -1.6530 C   0  0  0  0  0  0  0  0  0  3  0  0
   -0.7169    2.1024   -1.0843 O   0  0  0  0  0  0  0  0  0  4  0  0
   -0.4654    0.4731   -2.6199 N   0  0  0  0  0  0  0  0  0  5  0  0
   -1.9125    0.3814   -2.7831 C   0  0  0  0  0  0  0  0  0  6  0  0
   -2.3561    1.1997   -2.2115 H   0  0  0  0  0  0  0  0  0  7  0  0
   -2.1580    0.5208   -3.8498 H   0  0  0  0  0  0  0  0  0 31  0  0
   -2.4441   -0.9866   -2.3201 C   0  0  2  0  0  0  0  0  0  8  0  0
   -3.5161   -1.0132   -2.5283 H   0  0  0  0  0  0  0  0  0 30  0  0
   -2.2741   -1.2182   -0.8192 C   0  0  0  0  0  0  0  0  0  9  0  0
   -2.5677   -0.3191   -0.2790 H   0  0  0  0  0  0  0  0  0 28  0  0
   -2.9139   -2.0386   -0.4751 H   0  0  0  0  0  0  0  0  0 29  0  0
   -0.9146   -1.5730   -0.4178 N   0  0  0  0  0  0  0  0  0 10  0  0
    0.0675   -1.9203   -1.2728 C   0  0  0  0  0  0  0  0  0 11  0  0
    1.3116   -2.2513   -0.7918 C   0  0  0  0  0  0  0  0  0 12  0  0
    2.0962   -2.5340   -1.4814 H   0  0  0  0  0  0  0  0  0 19  0  0
    1.5687   -2.2394    0.5798 C   0  0  0  0  0  0  0  0  0 13  0  0
    2.5438   -2.4956    0.9546 H   0  0  0  0  0  0  0  0  0 18  0  0
    0.5712   -1.9022    1.4498 C   0  0  0  0  0  0  0  0  0 14  0  0
    0.7036   -1.9008    2.5084 H   0  0  0  0  0  0  0  0  0 17  0  0
   -0.7583   -1.5808    0.9772 C   0  0  0  0  0  0  0  0  0 15  0  0
   -1.7187   -1.3501    1.6901 O   0  0  0  0  0  0  0  0  0 16  0  0
   -0.2120   -1.9425   -2.7392 C   0  0  1  0  0  0  0  0  0 20  0  0
    0.3573   -2.7489   -3.2096 H   0  0  0  0  0  0  0  0  0 24  0  0
   -1.7061   -2.1108   -3.0434 C   0  0  0  0  0  0  0  0  0 21  0  0
   -1.8887   -2.0685   -4.1142 H   0  0  0  0  0  0  0  0  0 22  0  0
   -2.0460   -3.0814   -2.6796 H   0  0  0  0  0  0  0  0  0 23  0  0
    0.2269   -0.5810   -3.3069 C   0  0  0  0  0  0  0  0  0 25  0  0
   -0.0175   -0.5292   -4.3739 H   0  0  0  0  0  0  0  0  0 26  0  0
    1.3139   -0.4435   -3.2380 H   0  0  0  0  0  0  0  0  0 27  0  0
    1.8508    0.4174   -1.6987 H   0  0  0  0  0  0  0  0  0 32  0  0
    3.1864    1.9952   -0.8424 H   0  0  0  0  0  0  0  0  0 33  0  0
    2.0801    1.4971    0.9111 C   0  0  0  0  0  0  0  0  0 34  0  0
    3.0945    1.0904    1.4384 O   0  0  0  0  0  0  0  0  0 35  0  0
    0.8442    1.5291    1.4598 N   0  0  0  0  0  0  0  0  0 36  0  0
    0.4443    1.0560    2.7008 C   0  0  0  0  0  0  0  0  0 37  0  0
    1.3192    0.5406    3.6640 C   0  0  0  0  0  0  0  0  0 38  0  0
    2.3745    0.5071    3.4525 H   0  0  0  0  0  0  0  0  0 47  0  0
    0.8243    0.0802    4.8685 C   0  0  0  0  0  0  0  0  0 39  0  0
    1.5190   -0.3158    5.6014 H   0  0  0  0  0  0  0  0  0 46  0  0
   -0.5346    0.1188    5.1493 C   0  0  0  0  0  0  0  0  0 40  0  0
   -0.8970   -0.2466    6.1023 H   0  0  0  0  0  0  0  0  0 45  0  0
   -1.4143    0.6361    4.2160 C   0  0  0  0  0  0  0  0  0 41  0  0
   -2.4650    0.6915    4.4167 H   0  0  0  0  0  0  0  0  0 44  0  0
   -0.9155    1.1009    3.0171 C   0  0  0  0  0  0  0  0  0 42  0  0
   -1.7678    1.6223    2.1077 F   0  0  0  0  0  0  0  0  0 43  0  0
    0.1035    1.8695    0.8736 H   0  0  0  0  0  0  0  0  0 48  0  0
    0.7031    3.6872   -0.2605 H   0  0  0  0  0  0  0  0  0 49  0  0
    1.8484    3.9267   -1.5891 H   0  0  0  0  0  0  0  0  0 50  0  0
    2.3841    4.1273    0.0936 H   0  0  0  0  0  0  0  0  0 51  0  0
  1  2  1  0
  2  3  1  0
  3  4  1  0
  4  5  2  0
  4  6  1  0
  6  7  1  0
  7  8  1  0
  7  9  1  0
  7 10  1  0
 10 11  1  1
 10 12  1  0
 12 13  1  0
 12 14  1  0
 12 15  1  0
 15 16  4  0
 16 17  4  0
 17 18  1  0
 17 19  4  0
 19 20  1  0
 19 21  4  0
 21 22  1  0
 21 23  4  0
 23 24  2  0
 16 25  1  0
 25 26  1  6
 25 27  1  0
 27 28  1  0
 27 29  1  0
 25 30  1  0
 30 31  1  0
 30 32  1  0
  3 33  1  0
  2 34  1  6
  2 35  1  0
 35 36  2  0
 35 37  1  0
 37 38  1  0
 38 39  4  0
 39 40  1  0
 39 41  4  0
 41 42  1  0
 41 43  4  0
 43 44  1  0
 43 45  4  0
 45 46  1  0
 45 47  4  0
 47 48  1  0
 37 49  1  0
  1 50  1  0
  1 51  1  0
  1 52  1  0
 30  6  1  0
 47 38  4  0
 27 10  1  0
 23 15  4  0
M  END
>  <sample_id>  (246)
train::C[C@H](NC(=O)N1C[C@@H]2C[C@H](C1)Cn1c2cccc1=O)C(=O)Nc1ccccc1F__gen0002

>  <partition>  (246)
BAT_EXTERNAL_CONFIRM

>  <method>  (246)
BA_seed193

>  <candidate>  (246)
primary

$$$$
train::Cc1ccc(OCc2cc(C(=O)NCC3COCCO3)no2)cc1C__gen0000
     RDKit          3D

 47 49  0  0  0  0  0  0  0  0999 V2000
   -3.4466    2.2820   -4.9725 C   0  0  0  0  0  0  0  0  0  0  0  0
   -2.4518    1.2375   -4.5887 C   0  0  0  0  0  0  0  0  0  1  0  0
   -2.7299   -0.1062   -4.7814 C   0  0  0  0  0  0  0  0  0  2  0  0
   -3.6679   -0.4028   -5.2077 H   0  0  0  0  0  0  0  0  0 43  0  0
   -1.8358   -1.0871   -4.3989 C   0  0  0  0  0  0  0  0  0  3  0  0
   -2.0556   -2.1355   -4.5531 H   0  0  0  0  0  0  0  0  0 42  0  0
   -0.6143   -0.7366   -3.8464 C   0  0  0  0  0  0  0  0  0  4  0  0
    0.2283   -1.7757   -3.5129 O   0  0  0  0  0  0  0  0  0 12  0  0
    1.4651   -1.4917   -2.9234 C   0  0  0  0  0  0  0  0  0 13  0  0
    1.3320   -0.9228   -1.5461 C   0  0  0  0  0  0  0  0  0 14  0  0
    0.2651   -0.7201   -0.7255 C   0  0  0  0  0  0  0  0  0 15  0  0
   -0.7624   -0.9260   -0.9151 H   0  0  0  0  0  0  0  0  0 39  0  0
    0.8333   -0.1616    0.4439 C   0  0  0  0  0  0  0  0  0 16  0  0
    0.1329    0.2879    1.6585 C   0  0  0  0  0  0  0  0  0 19  0  0
   -1.0871    0.2560    1.7571 O   0  0  0  0  0  0  0  0  0 20  0  0
    0.9542    0.7133    2.6414 N   0  0  0  0  0  0  0  0  0 21  0  0
    1.9456    0.6024    2.5149 H   0  0  0  0  0  0  0  0  0 22  0  0
    0.4965    1.0650    3.9466 C   0  0  0  0  0  0  0  0  0 23  0  0
    0.7773   -0.0461    4.9750 C   0  0  1  0  0  0  0  0  0 24  0  0
    0.4763    0.2796    5.9798 H   0  0  0  0  0  0  0  0  0 36  0  0
    0.0309   -1.3482    4.6346 C   0  0  0  0  0  0  0  0  0 25  0  0
    0.2777   -1.6541    3.6143 H   0  0  0  0  0  0  0  0  0 26  0  0
   -1.0556   -1.1985    4.7197 H   0  0  0  0  0  0  0  0  0 35  0  0
    0.3727   -2.3690    5.5233 O   0  0  0  0  0  0  0  0  0 27  0  0
    1.7576   -2.6169    5.4916 C   0  0  0  0  0  0  0  0  0 28  0  0
    2.0800   -2.9485    4.5021 H   0  0  0  0  0  0  0  0  0 29  0  0
    1.9590   -3.4037    6.2313 H   0  0  0  0  0  0  0  0  0 34  0  0
    2.5133   -1.3383    5.8526 C   0  0  0  0  0  0  0  0  0 30  0  0
    3.5945   -1.4716    5.7498 H   0  0  0  0  0  0  0  0  0 31  0  0
    2.2721   -1.0578    6.8876 H   0  0  0  0  0  0  0  0  0 33  0  0
    2.1704   -0.2870    4.9571 O   0  0  0  0  0  0  0  0  0 32  0  0
   -0.5777    1.2402    3.8867 H   0  0  0  0  0  0  0  0  0 37  0  0
    1.0079    1.9778    4.2672 H   0  0  0  0  0  0  0  0  0 38  0  0
    2.1411   -0.0317    0.3011 N   0  0  0  0  0  0  0  0  0 17  0  0
    2.4498   -0.5082   -0.9236 O   0  0  0  0  0  0  0  0  0 18  0  0
    2.0547   -0.8085   -3.5534 H   0  0  0  0  0  0  0  0  0 40  0  0
    1.9869   -2.4479   -2.8818 H   0  0  0  0  0  0  0  0  0 41  0  0
   -0.3101    0.6122   -3.6697 C   0  0  0  0  0  0  0  0  0  5  0  0
    0.6357    0.9252   -3.2422 H   0  0  0  0  0  0  0  0  0 11  0  0
   -1.2256    1.5932   -4.0179 C   0  0  0  0  0  0  0  0  0  6  0  0
   -0.8808    3.0378   -3.7998 C   0  0  0  0  0  0  0  0  0  7  0  0
    0.1084    3.1424   -3.3666 H   0  0  0  0  0  0  0  0  0  8  0  0
   -1.6046    3.5032   -3.1370 H   0  0  0  0  0  0  0  0  0  9  0  0
   -0.9046    3.5853   -4.7467 H   0  0  0  0  0  0  0  0  0 10  0  0
   -3.0270    2.9736   -5.7067 H   0  0  0  0  0  0  0  0  0 44  0  0
   -4.3369    1.8244   -5.4090 H   0  0  0  0  0  0  0  0  0 45  0  0
   -3.7449    2.8629   -4.1101 H   0  0  0  0  0  0  0  0  0 46  0  0
  1  2  1  0
  2  3  4  0
  3  4  1  0
  3  5  4  0
  5  6  1  0
  5  7  4  0
  7  8  1  0
  8  9  1  0
  9 10  1  0
 10 11  4  0
 11 12  1  0
 11 13  4  0
 13 14  1  0
 14 15  2  0
 14 16  1  0
 16 17  1  0
 16 18  1  0
 18 19  1  0
 19 20  1  1
 19 21  1  0
 21 22  1  0
 21 23  1  0
 21 24  1  0
 24 25  1  0
 25 26  1  0
 25 27  1  0
 25 28  1  0
 28 29  1  0
 28 30  1  0
 28 31  1  0
 18 32  1  0
 18 33  1  0
 13 34  4  0
 34 35  4  0
  9 36  1  0
  9 37  1  0
  7 38  4  0
 38 39  1  0
 38 40  4  0
 40 41  1  0
 41 42  1  0
 41 43  1  0
 41 44  1  0
  1 45  1  0
  1 46  1  0
  1 47  1  0
 40  2  4  0
 35 10  4  0
 31 19  1  0
M  END
>  <sample_id>  (247)
train::Cc1ccc(OCc2cc(C(=O)NCC3COCCO3)no2)cc1C__gen0000

>  <partition>  (247)
BAT_EXTERNAL_CONFIRM

>  <method>  (247)
BA_seed193

>  <candidate>  (247)
primary

$$$$
train::Cc1ccc(OCc2cc(C(=O)NCC3COCCO3)no2)cc1C__gen0001
     RDKit          3D

 47 49  0  0  0  0  0  0  0  0999 V2000
    4.9874    4.1137    1.5779 C   0  0  0  0  0  0  0  0  0  0  0  0
    3.5973    4.0461    1.0318 C   0  0  0  0  0  0  0  0  0  1  0  0
    2.6039    4.8568    1.5618 C   0  0  0  0  0  0  0  0  0  2  0  0
    2.8470    5.5322    2.3874 H   0  0  0  0  0  0  0  0  0 43  0  0
    1.3158    4.8237    1.0940 C   0  0  0  0  0  0  0  0  0  3  0  0
    0.5356    5.4449    1.5129 H   0  0  0  0  0  0  0  0  0 42  0  0
    0.9911    3.9684    0.0406 C   0  0  0  0  0  0  0  0  0  4  0  0
   -0.3336    4.0058   -0.3723 O   0  0  0  0  0  0  0  0  0 12  0  0
   -0.7355    3.1807   -1.4092 C   0  0  0  0  0  0  0  0  0 13  0  0
   -0.7000    1.7268   -1.0571 C   0  0  0  0  0  0  0  0  0 14  0  0
   -0.7535    1.0563    0.1403 C   0  0  0  0  0  0  0  0  0 15  0  0
   -0.8036    1.4751    1.1286 H   0  0  0  0  0  0  0  0  0 39  0  0
   -0.7144   -0.3059   -0.2206 C   0  0  0  0  0  0  0  0  0 16  0  0
   -0.7420   -1.4855    0.6900 C   0  0  0  0  0  0  0  0  0 19  0  0
   -0.8149   -1.3610    1.8833 O   0  0  0  0  0  0  0  0  0 20  0  0
   -0.6749   -2.6460    0.0441 N   0  0  0  0  0  0  0  0  0 21  0  0
   -0.6864   -2.6346   -0.9797 H   0  0  0  0  0  0  0  0  0 22  0  0
   -0.8139   -3.9314    0.6853 C   0  0  0  0  0  0  0  0  0 23  0  0
   -2.1580   -4.5964    0.3765 C   0  0  1  0  0  0  0  0  0 24  0  0
   -2.2112   -5.5260    0.9279 H   0  0  0  0  0  0  0  0  0 36  0  0
   -3.3560   -3.7039    0.7517 C   0  0  0  0  0  0  0  0  0 25  0  0
   -3.3818   -3.5259    1.8244 H   0  0  0  0  0  0  0  0  0 26  0  0
   -3.2946   -2.7420    0.2319 H   0  0  0  0  0  0  0  0  0 35  0  0
   -4.5681   -4.3372    0.4193 O   0  0  0  0  0  0  0  0  0 27  0  0
   -4.6139   -4.6387   -0.9623 C   0  0  0  0  0  0  0  0  0 28  0  0
   -4.6027   -3.7117   -1.5578 H   0  0  0  0  0  0  0  0  0 29  0  0
   -5.5571   -5.1549   -1.1252 H   0  0  0  0  0  0  0  0  0 34  0  0
   -3.4098   -5.4972   -1.3417 C   0  0  0  0  0  0  0  0  0 30  0  0
   -3.5076   -6.4714   -0.8323 H   0  0  0  0  0  0  0  0  0 31  0  0
   -3.3876   -5.6755   -2.4213 H   0  0  0  0  0  0  0  0  0 33  0  0
   -2.2015   -4.8710   -1.0117 O   0  0  0  0  0  0  0  0  0 32  0  0
   -0.7534   -3.7350    1.7657 H   0  0  0  0  0  0  0  0  0 37  0  0
   -0.0231   -4.5819    0.3668 H   0  0  0  0  0  0  0  0  0 38  0  0
   -0.6583   -0.4287   -1.5310 N   0  0  0  0  0  0  0  0  0 17  0  0
   -0.6428    0.8185   -2.0544 O   0  0  0  0  0  0  0  0  0 18  0  0
   -0.1245    3.3157   -2.3240 H   0  0  0  0  0  0  0  0  0 40  0  0
   -1.7594    3.4763   -1.6349 H   0  0  0  0  0  0  0  0  0 41  0  0
    1.9542    3.1521   -0.4949 C   0  0  0  0  0  0  0  0  0  5  0  0
    1.7536    2.4827   -1.3074 H   0  0  0  0  0  0  0  0  0 11  0  0
    3.2659    3.1891    0.0026 C   0  0  0  0  0  0  0  0  0  6  0  0
    4.3080    2.2856   -0.6135 C   0  0  0  0  0  0  0  0  0  7  0  0
    4.7832    1.6840    0.1503 H   0  0  0  0  0  0  0  0  0  8  0  0
    3.8809    1.6510   -1.3690 H   0  0  0  0  0  0  0  0  0  9  0  0
    5.0989    2.8997   -1.0904 H   0  0  0  0  0  0  0  0  0 10  0  0
    5.0625    4.8554    2.3644 H   0  0  0  0  0  0  0  0  0 44  0  0
    5.6983    4.3788    0.7841 H   0  0  0  0  0  0  0  0  0 45  0  0
    5.3004    3.1426    1.9670 H   0  0  0  0  0  0  0  0  0 46  0  0
  1  2  1  0
  2  3  4  0
  3  4  1  0
  3  5  4  0
  5  6  1  0
  5  7  4  0
  7  8  1  0
  8  9  1  0
  9 10  1  0
 10 11  4  0
 11 12  1  0
 11 13  4  0
 13 14  1  0
 14 15  2  0
 14 16  1  0
 16 17  1  0
 16 18  1  0
 18 19  1  0
 19 20  1  1
 19 21  1  0
 21 22  1  0
 21 23  1  0
 21 24  1  0
 24 25  1  0
 25 26  1  0
 25 27  1  0
 25 28  1  0
 28 29  1  0
 28 30  1  0
 28 31  1  0
 18 32  1  0
 18 33  1  0
 13 34  4  0
 34 35  4  0
  9 36  1  0
  9 37  1  0
  7 38  4  0
 38 39  1  0
 38 40  4  0
 40 41  1  0
 41 42  1  0
 41 43  1  0
 41 44  1  0
  1 45  1  0
  1 46  1  0
  1 47  1  0
 40  2  4  0
 35 10  4  0
 31 19  1  0
M  END
>  <sample_id>  (248)
train::Cc1ccc(OCc2cc(C(=O)NCC3COCCO3)no2)cc1C__gen0001

>  <partition>  (248)
BAT_EXTERNAL_CONFIRM

>  <method>  (248)
BA_seed193

>  <candidate>  (248)
primary

$$$$
train::Cc1ccc(OCc2cc(C(=O)NCC3COCCO3)no2)cc1C__gen0002
     RDKit          3D

 47 49  0  0  0  0  0  0  0  0999 V2000
   -4.4205    3.2336   -0.3933 C   0  0  0  0  0  0  0  0  0  0  0  0
   -4.1744    1.8536    0.1268 C   0  0  0  0  0  0  0  0  0  1  0  0
   -3.6260    0.8758   -0.6847 C   0  0  0  0  0  0  0  0  0  2  0  0
   -3.3765    1.1140   -1.7038 H   0  0  0  0  0  0  0  0  0 43  0  0
   -3.3884   -0.4129   -0.2146 C   0  0  0  0  0  0  0  0  0  3  0  0
   -2.9537   -1.1335   -0.8968 H   0  0  0  0  0  0  0  0  0 42  0  0
   -3.7011   -0.7341    1.0856 C   0  0  0  0  0  0  0  0  0  4  0  0
   -3.5205   -1.9698    1.6863 O   0  0  0  0  0  0  0  0  0 12  0  0
   -2.9429   -2.9915    0.9088 C   0  0  0  0  0  0  0  0  0 13  0  0
   -1.5211   -2.7218    0.5571 C   0  0  0  0  0  0  0  0  0 14  0  0
   -0.5748   -1.9418    1.1371 C   0  0  0  0  0  0  0  0  0 15  0  0
   -0.6508   -1.2972    1.9905 H   0  0  0  0  0  0  0  0  0 39  0  0
    0.5747   -2.1427    0.3265 C   0  0  0  0  0  0  0  0  0 16  0  0
    1.9135   -1.5108    0.4803 C   0  0  0  0  0  0  0  0  0 19  0  0
    2.1532   -0.6883    1.3353 O   0  0  0  0  0  0  0  0  0 20  0  0
    2.8137   -1.9826   -0.4068 N   0  0  0  0  0  0  0  0  0 21  0  0
    2.4906   -2.6333   -1.1032 H   0  0  0  0  0  0  0  0  0 22  0  0
    4.1514   -1.4664   -0.5076 C   0  0  0  0  0  0  0  0  0 23  0  0
    4.3407   -0.5830   -1.7628 C   0  0  1  0  0  0  0  0  0 24  0  0
    3.9047   -1.0879   -2.6165 H   0  0  0  0  0  0  0  0  0 36  0  0
    3.6613    0.7771   -1.5577 C   0  0  0  0  0  0  0  0  0 25  0  0
    2.6628    0.6664   -1.1679 H   0  0  0  0  0  0  0  0  0 26  0  0
    3.6121    1.3051   -2.5456 H   0  0  0  0  0  0  0  0  0 35  0  0
    4.3759    1.5849   -0.6504 O   0  0  0  0  0  0  0  0  0 27  0  0
    5.7153    1.7618   -1.0607 C   0  0  0  0  0  0  0  0  0 28  0  0
    5.7558    2.2828   -2.0404 H   0  0  0  0  0  0  0  0  0 29  0  0
    6.1937    2.3794   -0.3110 H   0  0  0  0  0  0  0  0  0 34  0  0
    6.4089    0.4129   -1.2010 C   0  0  0  0  0  0  0  0  0 30  0  0
    7.4043    0.5520   -1.6278 H   0  0  0  0  0  0  0  0  0 31  0  0
    6.5009   -0.0447   -0.2188 H   0  0  0  0  0  0  0  0  0 33  0  0
    5.7119   -0.4199   -2.0986 O   0  0  0  0  0  0  0  0  0 32  0  0
    4.8730   -2.2957   -0.5392 H   0  0  0  0  0  0  0  0  0 37  0  0
    4.3315   -0.8643    0.4029 H   0  0  0  0  0  0  0  0  0 38  0  0
    0.2967   -2.9750   -0.6514 N   0  0  0  0  0  0  0  0  0 17  0  0
   -0.9915   -3.3511   -0.5182 O   0  0  0  0  0  0  0  0  0 18  0  0
   -3.0136   -3.8786    1.5419 H   0  0  0  0  0  0  0  0  0 40  0  0
   -3.5242   -3.1803   -0.0088 H   0  0  0  0  0  0  0  0  0 41  0  0
   -4.2494    0.2473    1.9076 C   0  0  0  0  0  0  0  0  0  5  0  0
   -4.4858   -0.0304    2.9311 H   0  0  0  0  0  0  0  0  0 11  0  0
   -4.5000    1.5267    1.4607 C   0  0  0  0  0  0  0  0  0  6  0  0
   -5.0846    2.5547    2.3739 C   0  0  0  0  0  0  0  0  0  7  0  0
   -4.3994    3.4106    2.4769 H   0  0  0  0  0  0  0  0  0  8  0  0
   -6.0236    2.9152    1.9820 H   0  0  0  0  0  0  0  0  0  9  0  0
   -5.2637    2.1284    3.3576 H   0  0  0  0  0  0  0  0  0 10  0  0
   -4.1277    3.2949   -1.4468 H   0  0  0  0  0  0  0  0  0 44  0  0
   -5.4746    3.4923   -0.3146 H   0  0  0  0  0  0  0  0  0 45  0  0
   -3.8579    3.9685    0.1798 H   0  0  0  0  0  0  0  0  0 46  0  0
  1  2  1  0
  2  3  4  0
  3  4  1  0
  3  5  4  0
  5  6  1  0
  5  7  4  0
  7  8  1  0
  8  9  1  0
  9 10  1  0
 10 11  4  0
 11 12  1  0
 11 13  4  0
 13 14  1  0
 14 15  2  0
 14 16  1  0
 16 17  1  0
 16 18  1  0
 18 19  1  0
 19 20  1  6
 19 21  1  0
 21 22  1  0
 21 23  1  0
 21 24  1  0
 24 25  1  0
 25 26  1  0
 25 27  1  0
 25 28  1  0
 28 29  1  0
 28 30  1  0
 28 31  1  0
 18 32  1  0
 18 33  1  0
 13 34  4  0
 34 35  4  0
  9 36  1  0
  9 37  1  0
  7 38  4  0
 38 39  1  0
 38 40  4  0
 40 41  1  0
 41 42  1  0
 41 43  1  0
 41 44  1  0
  1 45  1  0
  1 46  1  0
  1 47  1  0
 40  2  4  0
 35 10  4  0
 31 19  1  0
M  END
>  <sample_id>  (249)
train::Cc1ccc(OCc2cc(C(=O)NCC3COCCO3)no2)cc1C__gen0002

>  <partition>  (249)
BAT_EXTERNAL_CONFIRM

>  <method>  (249)
BA_seed193

>  <candidate>  (249)
primary

$$$$
train::Cc1ccc(C)c(C(=O)CC2(O)C(=O)N(C)c3ccccc32)c1__gen0000
     RDKit          3D

 42 44  0  0  0  0  0  0  0  0999 V2000
   -2.3383   -0.5986   -3.1877 C   0  0  0  0  0  0  0  0  0  0  0  0
   -1.0270   -0.2816   -2.5486 C   0  0  0  0  0  0  0  0  0  1  0  0
   -0.4039   -1.1815   -1.6931 C   0  0  0  0  0  0  0  0  0  2  0  0
   -0.8798   -2.1287   -1.5044 H   0  0  0  0  0  0  0  0  0 38  0  0
    0.8216   -0.8899   -1.1001 C   0  0  0  0  0  0  0  0  0  3  0  0
    1.4088   -1.8688   -0.1572 C   0  0  0  0  0  0  0  0  0 13  0  0
    2.5800   -2.2098   -0.1816 O   0  0  0  0  0  0  0  0  0 14  0  0
    0.4762   -2.4465    0.8931 C   0  0  0  0  0  0  0  0  0 15  0  0
    1.0370   -3.2139    1.4345 H   0  0  0  0  0  0  0  0  0 16  0  0
   -0.4086   -2.9108    0.4436 H   0  0  0  0  0  0  0  0  0 17  0  0
   -0.0232   -1.4198    1.9327 C   0  0  2  0  0  0  0  0  0 18  0  0
   -0.6293   -2.1040    2.9960 O   0  0  0  0  0  0  0  0  0 36  0  0
    0.0713   -2.4383    3.5877 H   0  0  0  0  0  0  0  0  0 37  0  0
   -0.9455   -0.3853    1.3329 C   0  0  0  0  0  0  0  0  0 19  0  0
   -2.1904   -0.5160    0.7542 C   0  0  0  0  0  0  0  0  0 20  0  0
   -2.6706   -1.4908    0.6919 H   0  0  0  0  0  0  0  0  0 35  0  0
   -2.8058    0.6184    0.2503 C   0  0  0  0  0  0  0  0  0 21  0  0
   -3.7743    0.5390   -0.2221 H   0  0  0  0  0  0  0  0  0 34  0  0
   -2.1889    1.8586    0.3333 C   0  0  0  0  0  0  0  0  0 22  0  0
   -2.6799    2.7261   -0.0799 H   0  0  0  0  0  0  0  0  0 33  0  0
   -0.9434    2.0003    0.9276 C   0  0  0  0  0  0  0  0  0 23  0  0
   -0.4745    2.9743    1.0064 H   0  0  0  0  0  0  0  0  0 32  0  0
   -0.3540    0.8636    1.4591 C   0  0  0  0  0  0  0  0  0 24  0  0
    0.8761    0.7478    2.1085 N   0  0  0  0  0  0  0  0  0 25  0  0
    1.7228    1.8301    2.5149 C   0  0  0  0  0  0  0  0  0 28  0  0
    1.3930    2.2621    3.4591 H   0  0  0  0  0  0  0  0  0 29  0  0
    1.7449    2.6093    1.7600 H   0  0  0  0  0  0  0  0  0 30  0  0
    2.7304    1.4275    2.6704 H   0  0  0  0  0  0  0  0  0 31  0  0
    1.1493   -0.5488    2.4335 C   0  0  0  0  0  0  0  0  0 26  0  0
    2.1193   -0.9377    3.0399 O   0  0  0  0  0  0  0  0  0 27  0  0
    1.4786    0.3128   -1.4079 C   0  0  0  0  0  0  0  0  0  4  0  0
    2.8138    0.6621   -0.8282 C   0  0  0  0  0  0  0  0  0  9  0  0
    3.4611   -0.2056   -0.7883 H   0  0  0  0  0  0  0  0  0 10  0  0
    3.2910    1.4343   -1.4303 H   0  0  0  0  0  0  0  0  0 11  0  0
    2.6884    1.0324    0.1795 H   0  0  0  0  0  0  0  0  0 12  0  0
    0.8305    1.2125   -2.2444 C   0  0  0  0  0  0  0  0  0  5  0  0
    1.3232    2.1473   -2.4813 H   0  0  0  0  0  0  0  0  0  8  0  0
   -0.4008    0.9294   -2.8059 C   0  0  0  0  0  0  0  0  0  6  0  0
   -0.8715    1.6530   -3.4570 H   0  0  0  0  0  0  0  0  0  7  0  0
   -2.1708   -0.9632   -4.2050 H   0  0  0  0  0  0  0  0  0 39  0  0
   -2.9721    0.2842   -3.2498 H   0  0  0  0  0  0  0  0  0 40  0  0
   -2.8648   -1.3855   -2.6360 H   0  0  0  0  0  0  0  0  0 41  0  0
  1  2  1  0
  2  3  4  0
  3  4  1  0
  3  5  4  0
  5  6  1  0
  6  7  2  0
  6  8  1  0
  8  9  1  0
  8 10  1  0
  8 11  1  0
 11 12  1  1
 12 13  1  0
 11 14  1  0
 14 15  4  0
 15 16  1  0
 15 17  4  0
 17 18  1  0
 17 19  4  0
 19 20  1  0
 19 21  4  0
 21 22  1  0
 21 23  4  0
 23 24  1  0
 24 25  1  0
 25 26  1  0
 25 27  1  0
 25 28  1  0
 24 29  1  0
 29 30  2  0
  5 31  4  0
 31 32  1  0
 32 33  1  0
 32 34  1  0
 32 35  1  0
 31 36  4  0
 36 37  1  0
 36 38  4  0
 38 39  1  0
  1 40  1  0
  1 41  1  0
  1 42  1  0
 38  2  4  0
 29 11  1  0
 23 14  4  0
M  END
>  <sample_id>  (250)
train::Cc1ccc(C)c(C(=O)CC2(O)C(=O)N(C)c3ccccc32)c1__gen0000

>  <partition>  (250)
BAT_EXTERNAL_CONFIRM

>  <method>  (250)
BA_seed193

>  <candidate>  (250)
primary

$$$$
train::Cc1ccc(C)c(C(=O)CC2(O)C(=O)N(C)c3ccccc32)c1__gen0001
     RDKit          3D

 42 44  0  0  0  0  0  0  0  0999 V2000
   -3.5254   -0.4733    2.2969 C   0  0  0  0  0  0  0  0  0  0  0  0
   -2.2116   -1.1562    2.0713 C   0  0  0  0  0  0  0  0  0  1  0  0
   -1.6677   -1.2584    0.8090 C   0  0  0  0  0  0  0  0  0  2  0  0
   -2.2258   -0.8398   -0.0170 H   0  0  0  0  0  0  0  0  0 38  0  0
   -0.4505   -1.9101    0.5645 C   0  0  0  0  0  0  0  0  0  3  0  0
    0.0607   -2.0220   -0.8223 C   0  0  0  0  0  0  0  0  0 13  0  0
    0.6961   -2.9928   -1.2041 O   0  0  0  0  0  0  0  0  0 14  0  0
   -0.2338   -0.9064   -1.8025 C   0  0  0  0  0  0  0  0  0 15  0  0
   -1.1002   -0.3130   -1.5046 H   0  0  0  0  0  0  0  0  0 16  0  0
   -0.4092   -1.3499   -2.7817 H   0  0  0  0  0  0  0  0  0 17  0  0
    0.9849    0.0335   -1.9416 C   0  0  2  0  0  0  0  0  0 18  0  0
    2.1686   -0.6603   -2.2649 O   0  0  0  0  0  0  0  0  0 36  0  0
    2.0101   -1.1022   -3.1108 H   0  0  0  0  0  0  0  0  0 37  0  0
    1.0951    0.9657   -0.7556 C   0  0  0  0  0  0  0  0  0 19  0  0
    1.4134    0.7298    0.5654 C   0  0  0  0  0  0  0  0  0 20  0  0
    1.6910   -0.2586    0.8990 H   0  0  0  0  0  0  0  0  0 35  0  0
    1.3737    1.8027    1.4490 C   0  0  0  0  0  0  0  0  0 21  0  0
    1.6166    1.6355    2.4940 H   0  0  0  0  0  0  0  0  0 34  0  0
    1.0179    3.0757    1.0181 C   0  0  0  0  0  0  0  0  0 22  0  0
    0.9866    3.8831    1.7286 H   0  0  0  0  0  0  0  0  0 33  0  0
    0.7273    3.3247   -0.3126 C   0  0  0  0  0  0  0  0  0 23  0  0
    0.4865    4.3176   -0.6642 H   0  0  0  0  0  0  0  0  0 32  0  0
    0.7719    2.2576   -1.1910 C   0  0  0  0  0  0  0  0  0 24  0  0
    0.5545    2.2521   -2.5650 N   0  0  0  0  0  0  0  0  0 25  0  0
    0.2462    3.4319   -3.3416 C   0  0  0  0  0  0  0  0  0 28  0  0
    0.1261    3.1006   -4.3823 H   0  0  0  0  0  0  0  0  0 29  0  0
    1.0652    4.1534   -3.2947 H   0  0  0  0  0  0  0  0  0 30  0  0
   -0.6707    3.9040   -2.9901 H   0  0  0  0  0  0  0  0  0 31  0  0
    0.6733    1.0131   -3.1040 C   0  0  0  0  0  0  0  0  0 26  0  0
    0.5478    0.7145   -4.2686 O   0  0  0  0  0  0  0  0  0 27  0  0
    0.2089   -2.5158    1.6391 C   0  0  0  0  0  0  0  0  0  4  0  0
    1.5455   -3.1952    1.4836 C   0  0  0  0  0  0  0  0  0  9  0  0
    1.5295   -3.8711    0.6336 H   0  0  0  0  0  0  0  0  0 10  0  0
    1.7970   -3.7415    2.3869 H   0  0  0  0  0  0  0  0  0 11  0  0
    2.3123   -2.4520    1.2905 H   0  0  0  0  0  0  0  0  0 12  0  0
   -0.3356   -2.3987    2.9168 C   0  0  0  0  0  0  0  0  0  5  0  0
    0.1913   -2.8576    3.7423 H   0  0  0  0  0  0  0  0  0  8  0  0
   -1.5341   -1.7402    3.1336 C   0  0  0  0  0  0  0  0  0  6  0  0
   -1.9305   -1.6680    4.1407 H   0  0  0  0  0  0  0  0  0  7  0  0
   -3.6095   -0.0969    3.3161 H   0  0  0  0  0  0  0  0  0 39  0  0
   -4.3475   -1.1721    2.1428 H   0  0  0  0  0  0  0  0  0 40  0  0
   -3.6459    0.3570    1.5973 H   0  0  0  0  0  0  0  0  0 41  0  0
  1  2  1  0
  2  3  4  0
  3  4  1  0
  3  5  4  0
  5  6  1  0
  6  7  2  0
  6  8  1  0
  8  9  1  0
  8 10  1  0
  8 11  1  0
 11 12  1  6
 12 13  1  0
 11 14  1  0
 14 15  4  0
 15 16  1  0
 15 17  4  0
 17 18  1  0
 17 19  4  0
 19 20  1  0
 19 21  4  0
 21 22  1  0
 21 23  4  0
 23 24  1  0
 24 25  1  0
 25 26  1  0
 25 27  1  0
 25 28  1  0
 24 29  1  0
 29 30  2  0
  5 31  4  0
 31 32  1  0
 32 33  1  0
 32 34  1  0
 32 35  1  0
 31 36  4  0
 36 37  1  0
 36 38  4  0
 38 39  1  0
  1 40  1  0
  1 41  1  0
  1 42  1  0
 38  2  4  0
 29 11  1  0
 23 14  4  0
M  END
>  <sample_id>  (251)
train::Cc1ccc(C)c(C(=O)CC2(O)C(=O)N(C)c3ccccc32)c1__gen0001

>  <partition>  (251)
BAT_EXTERNAL_CONFIRM

>  <method>  (251)
BA_seed193

>  <candidate>  (251)
primary

$$$$
train::Cc1ccc(C)c(C(=O)CC2(O)C(=O)N(C)c3ccccc32)c1__gen0002
     RDKit          3D

 42 44  0  0  0  0  0  0  0  0999 V2000
    4.2205   -0.5571    0.1907 C   0  0  0  0  0  0  0  0  0  0  0  0
    2.9507    0.2167    0.3596 C   0  0  0  0  0  0  0  0  0  1  0  0
    2.1075    0.3943   -0.7211 C   0  0  0  0  0  0  0  0  0  2  0  0
    2.3906   -0.0234   -1.6775 H   0  0  0  0  0  0  0  0  0 38  0  0
    0.9234    1.1290   -0.6016 C   0  0  0  0  0  0  0  0  0  3  0  0
    0.0136    1.2642   -1.7928 C   0  0  0  0  0  0  0  0  0 13  0  0
   -0.4873    2.3118   -2.1276 O   0  0  0  0  0  0  0  0  0 14  0  0
   -0.2269   -0.0155   -2.5830 C   0  0  0  0  0  0  0  0  0 15  0  0
   -0.9009    0.2170   -3.4067 H   0  0  0  0  0  0  0  0  0 16  0  0
    0.7192   -0.4058   -2.9660 H   0  0  0  0  0  0  0  0  0 17  0  0
   -0.9044   -1.1350   -1.7556 C   0  0  2  0  0  0  0  0  0 18  0  0
   -1.3698   -2.1184   -2.6345 O   0  0  0  0  0  0  0  0  0 36  0  0
   -0.6169   -2.7056   -2.8336 H   0  0  0  0  0  0  0  0  0 37  0  0
   -1.9477   -0.5965   -0.8270 C   0  0  0  0  0  0  0  0  0 19  0  0
   -3.1296    0.0468   -1.0942 C   0  0  0  0  0  0  0  0  0 20  0  0
   -3.4475    0.2373   -2.1112 H   0  0  0  0  0  0  0  0  0 35  0  0
   -3.9120    0.4606   -0.0215 C   0  0  0  0  0  0  0  0  0 21  0  0
   -4.8449    0.9808   -0.2008 H   0  0  0  0  0  0  0  0  0 34  0  0
   -3.5045    0.2320    1.2865 C   0  0  0  0  0  0  0  0  0 22  0  0
   -4.1239    0.5611    2.1050 H   0  0  0  0  0  0  0  0  0 33  0  0
   -2.3165   -0.4213    1.5602 C   0  0  0  0  0  0  0  0  0 23  0  0
   -1.9998   -0.6019    2.5739 H   0  0  0  0  0  0  0  0  0 32  0  0
   -1.5460   -0.8312    0.4850 C   0  0  0  0  0  0  0  0  0 24  0  0
   -0.3490   -1.5441    0.4969 N   0  0  0  0  0  0  0  0  0 25  0  0
    0.3318   -1.9755    1.6701 C   0  0  0  0  0  0  0  0  0 28  0  0
    0.7322   -1.1264    2.2328 H   0  0  0  0  0  0  0  0  0 29  0  0
    1.1592   -2.6251    1.3779 H   0  0  0  0  0  0  0  0  0 30  0  0
   -0.3382   -2.5575    2.3179 H   0  0  0  0  0  0  0  0  0 31  0  0
    0.0946   -1.7903   -0.7729 C   0  0  0  0  0  0  0  0  0 26  0  0
    1.0630   -2.4433   -1.0795 O   0  0  0  0  0  0  0  0  0 27  0  0
    0.5931    1.7272    0.6092 C   0  0  0  0  0  0  0  0  0  4  0  0
   -0.6383    2.5738    0.7639 C   0  0  0  0  0  0  0  0  0  9  0  0
   -0.8772    2.7069    1.8198 H   0  0  0  0  0  0  0  0  0 10  0  0
   -0.4682    3.5637    0.3305 H   0  0  0  0  0  0  0  0  0 11  0  0
   -1.4837    2.1191    0.2566 H   0  0  0  0  0  0  0  0  0 12  0  0
    1.4483    1.5340    1.6919 C   0  0  0  0  0  0  0  0  0  5  0  0
    1.1983    1.9889    2.6442 H   0  0  0  0  0  0  0  0  0  8  0  0
    2.6034    0.8013    1.5745 C   0  0  0  0  0  0  0  0  0  6  0  0
    3.2480    0.6614    2.4401 H   0  0  0  0  0  0  0  0  0  7  0  0
    4.0266   -1.4831   -0.3546 H   0  0  0  0  0  0  0  0  0 39  0  0
    4.6605   -0.7977    1.1536 H   0  0  0  0  0  0  0  0  0 40  0  0
    4.9486    0.0269   -0.3792 H   0  0  0  0  0  0  0  0  0 41  0  0
  1  2  1  0
  2  3  4  0
  3  4  1  0
  3  5  4  0
  5  6  1  0
  6  7  2  0
  6  8  1  0
  8  9  1  0
  8 10  1  0
  8 11  1  0
 11 12  1  6
 12 13  1  0
 11 14  1  0
 14 15  4  0
 15 16  1  0
 15 17  4  0
 17 18  1  0
 17 19  4  0
 19 20  1  0
 19 21  4  0
 21 22  1  0
 21 23  4  0
 23 24  1  0
 24 25  1  0
 25 26  1  0
 25 27  1  0
 25 28  1  0
 24 29  1  0
 29 30  2  0
  5 31  4  0
 31 32  1  0
 32 33  1  0
 32 34  1  0
 32 35  1  0
 31 36  4  0
 36 37  1  0
 36 38  4  0
 38 39  1  0
  1 40  1  0
  1 41  1  0
  1 42  1  0
 38  2  4  0
 29 11  1  0
 23 14  4  0
M  END
>  <sample_id>  (252)
train::Cc1ccc(C)c(C(=O)CC2(O)C(=O)N(C)c3ccccc32)c1__gen0002

>  <partition>  (252)
BAT_EXTERNAL_CONFIRM

>  <method>  (252)
BA_seed193

>  <candidate>  (252)
primary

$$$$
train::CC[C@H](C)[C@@H](C(=O)N1CCNCC1)n1cc([C@@H]([NH3+])Cc2ccc(O)cc2)nn1__gen0000
     RDKit          3D

 59 61  0  0  0  0  0  0  0  0999 V2000
   -3.7398    3.0717    1.1584 C   0  0  0  0  0  0  0  0  0  0  0  0
   -3.7618    3.9690    1.7816 H   0  0  0  0  0  0  0  0  0  1  0  0
   -4.0289    2.2354    1.7700 H   0  0  0  0  0  0  0  0  0  2  0  0
   -2.3616    2.8608    0.5664 C   0  0  0  0  0  0  0  0  0  3  0  0
   -2.0633    3.7354   -0.0185 H   0  0  0  0  0  0  0  0  0  4  0  0
   -2.4447    2.0200   -0.1402 H   0  0  0  0  0  0  0  0  0  5  0  0
   -1.2906    2.5686    1.6133 C   0  0  2  0  0  0  0  0  0  6  0  0
   -0.9731    3.7992    2.4670 C   0  0  0  0  0  0  0  0  0  7  0  0
   -0.1626    3.5964    3.1517 H   0  0  0  0  0  0  0  0  0  8  0  0
   -0.6839    4.6308    1.8195 H   0  0  0  0  0  0  0  0  0  9  0  0
   -1.8576    4.0757    3.0398 H   0  0  0  0  0  0  0  0  0 10  0  0
   -1.6596    1.7721    2.2757 H   0  0  0  0  0  0  0  0  0 11  0  0
    0.0249    2.0317    0.9989 C   0  0  2  0  0  0  0  0  0 12  0  0
   -0.1939    1.1647   -0.1364 N   0  0  0  0  0  0  0  0  0 13  0  0
   -0.7500   -0.0442   -0.1326 C   0  0  0  0  0  0  0  0  0 14  0  0
   -1.1314   -0.4887    0.7776 H   0  0  0  0  0  0  0  0  0 39  0  0
   -0.7139   -0.4572   -1.4578 C   0  0  0  0  0  0  0  0  0 15  0  0
   -1.0803   -1.6783   -2.2375 C   0  0  1  0  0  0  0  0  0 18  0  0
   -2.0160   -2.1209   -1.8664 H   0  0  0  0  0  0  0  0  0 19  0  0
   -1.1864   -1.1790   -3.6427 N   0  0  0  0  0  0  0  0  0 20  0  0
   -2.1491   -1.1482   -4.0061 H   0  0  0  0  0  0  0  0  0 21  0  0
   -0.6438   -1.7926   -4.2699 H   0  0  0  0  0  0  0  0  0 22  0  0
   -0.7109   -0.1848   -3.5357 H   0  0  0  0  0  0  0  0  0 23  0  0
    0.0178   -2.7766   -2.1322 C   0  0  0  0  0  0  0  0  0 24  0  0
   -0.2942   -4.0424   -2.9161 C   0  0  0  0  0  0  0  0  0 25  0  0
   -0.1161   -5.2497   -2.2281 C   0  0  0  0  0  0  0  0  0 26  0  0
    0.1925   -5.2266   -1.1858 H   0  0  0  0  0  0  0  0  0 36  0  0
   -0.3167   -6.4587   -2.8407 C   0  0  0  0  0  0  0  0  0 27  0  0
   -0.2048   -7.3873   -2.3036 H   0  0  0  0  0  0  0  0  0 35  0  0
   -0.6962   -6.5119   -4.1786 C   0  0  0  0  0  0  0  0  0 28  0  0
   -0.8962   -7.7327   -4.7522 O   0  0  0  0  0  0  0  0  0 33  0  0
   -1.1095   -7.6388   -5.6793 H   0  0  0  0  0  0  0  0  0 34  0  0
   -0.8441   -5.3247   -4.8790 C   0  0  0  0  0  0  0  0  0 29  0  0
   -1.1333   -5.3382   -5.9160 H   0  0  0  0  0  0  0  0  0 32  0  0
   -0.6410   -4.1100   -4.2489 C   0  0  0  0  0  0  0  0  0 30  0  0
   -0.7693   -3.2383   -4.8740 H   0  0  0  0  0  0  0  0  0 31  0  0
    0.0838   -3.0123   -1.0764 H   0  0  0  0  0  0  0  0  0 37  0  0
    0.9654   -2.3554   -2.4655 H   0  0  0  0  0  0  0  0  0 38  0  0
   -0.1472    0.5314   -2.1635 N   0  0  0  0  0  0  0  0  0 16  0  0
    0.1732    1.4868   -1.3814 N   0  0  0  0  0  0  0  0  0 17  0  0
    0.6113    2.8810    0.6093 H   0  0  0  0  0  0  0  0  0 40  0  0
    0.7554    1.1802    2.0162 C   0  0  0  0  0  0  0  0  0 41  0  0
    0.1804    0.1808    2.4435 O   0  0  0  0  0  0  0  0  0 42  0  0
    1.9761    1.5221    2.4277 N   0  0  0  0  0  0  0  0  0 43  0  0
    2.5577    0.9031    3.6017 C   0  0  0  0  0  0  0  0  0 44  0  0
    1.8505    0.1768    3.9748 H   0  0  0  0  0  0  0  0  0 45  0  0
    3.4869    0.4132    3.3358 H   0  0  0  0  0  0  0  0  0 57  0  0
    2.8194    2.0043    4.6621 C   0  0  0  0  0  0  0  0  0 46  0  0
    1.8650    2.4427    4.9536 H   0  0  0  0  0  0  0  0  0 55  0  0
    3.2978    1.5648    5.5421 H   0  0  0  0  0  0  0  0  0 56  0  0
    3.6764    3.0742    4.1319 N   0  0  0  0  0  0  0  0  0 47  0  0
    4.5865    2.6834    4.0625 H   0  0  0  0  0  0  0  0  0 48  0  0
    3.0941    3.6196    2.9338 C   0  0  0  0  0  0  0  0  0 49  0  0
    3.7920    4.3603    2.5192 H   0  0  0  0  0  0  0  0  0 53  0  0
    2.1700    4.1253    3.2152 H   0  0  0  0  0  0  0  0  0 54  0  0
    2.8448    2.5415    1.8680 C   0  0  0  0  0  0  0  0  0 50  0  0
    2.4343    3.0019    0.9654 H   0  0  0  0  0  0  0  0  0 51  0  0
    3.7935    2.0589    1.6020 H   0  0  0  0  0  0  0  0  0 52  0  0
   -4.4783    3.2138    0.3805 H   0  0  0  0  0  0  0  0  0 58  0  0
  1  2  1  0
  1  3  1  0
  1  4  1  0
  4  5  1  0
  4  6  1  0
  4  7  1  0
  7  8  1  0
  8  9  1  0
  8 10  1  0
  8 11  1  0
  7 12  1  1
  7 13  1  0
 13 14  1  0
 14 15  4  0
 15 16  1  0
 15 17  4  0
 17 18  1  0
 18 19  1  1
 18 20  1  0
 20 21  1  0
 20 22  1  0
 20 23  1  0
 18 24  1  0
 24 25  1  0
 25 26  4  0
 26 27  1  0
 26 28  4  0
 28 29  1  0
 28 30  4  0
 30 31  1  0
 31 32  1  0
 30 33  4  0
 33 34  1  0
 33 35  4  0
 35 36  1  0
 24 37  1  0
 24 38  1  0
 17 39  4  0
 39 40  4  0
 13 41  1  6
 13 42  1  0
 42 43  2  0
 42 44  1  0
 44 45  1  0
 45 46  1  0
 45 47  1  0
 45 48  1  0
 48 49  1  0
 48 50  1  0
 48 51  1  0
 51 52  1  0
 51 53  1  0
 53 54  1  0
 53 55  1  0
 53 56  1  0
 56 57  1  0
 56 58  1  0
  1 59  1  0
 40 14  4  0
 56 44  1  0
 35 25  4  0
M  CHG  1  20   1
M  END
>  <sample_id>  (253)
train::CC[C@H](C)[C@@H](C(=O)N1CCNCC1)n1cc([C@@H]([NH3+])Cc2ccc(O)cc2)nn1__gen0000

>  <partition>  (253)
BAT_EXTERNAL_CONFIRM

>  <method>  (253)
BA_seed193

>  <candidate>  (253)
primary

$$$$
train::CC[C@H](C)[C@@H](C(=O)N1CCNCC1)n1cc([C@@H]([NH3+])Cc2ccc(O)cc2)nn1__gen0001
     RDKit          3D

 59 61  0  0  0  0  0  0  0  0999 V2000
    2.4168    1.7309    1.1979 C   0  0  0  0  0  0  0  0  0  0  0  0
    2.8103    1.8906    2.1990 H   0  0  0  0  0  0  0  0  0  1  0  0
    2.7809    0.7660    0.8454 H   0  0  0  0  0  0  0  0  0  2  0  0
    0.8813    1.7440    1.2430 C   0  0  0  0  0  0  0  0  0  3  0  0
    0.5730    2.6484    1.7537 H   0  0  0  0  0  0  0  0  0  4  0  0
    0.5516    0.8851    1.8278 H   0  0  0  0  0  0  0  0  0  5  0  0
    0.2155    1.7261   -0.1335 C   0  0  2  0  0  0  0  0  0  6  0  0
   -1.2924    1.7153    0.0631 C   0  0  0  0  0  0  0  0  0  7  0  0
   -1.8312    1.5352   -0.8587 H   0  0  0  0  0  0  0  0  0  8  0  0
   -1.5916    0.9606    0.7832 H   0  0  0  0  0  0  0  0  0  9  0  0
   -1.6144    2.6860    0.4527 H   0  0  0  0  0  0  0  0  0 10  0  0
    0.4978    2.6208   -0.6846 H   0  0  0  0  0  0  0  0  0 11  0  0
    0.7132    0.4992   -0.9681 C   0  0  1  0  0  0  0  0  0 12  0  0
    0.3527   -0.7418   -0.3471 N   0  0  0  0  0  0  0  0  0 13  0  0
   -0.8127   -1.4161   -0.3753 C   0  0  0  0  0  0  0  0  0 14  0  0
   -1.6903   -1.0746   -0.8872 H   0  0  0  0  0  0  0  0  0 39  0  0
   -0.5569   -2.5507    0.3640 C   0  0  0  0  0  0  0  0  0 15  0  0
   -1.3863   -3.7221    0.7197 C   0  0  1  0  0  0  0  0  0 18  0  0
   -2.0506   -3.9852   -0.1024 H   0  0  0  0  0  0  0  0  0 19  0  0
   -0.4165   -4.8483    0.9652 N   0  0  0  0  0  0  0  0  0 20  0  0
   -0.8760   -5.6439    1.4415 H   0  0  0  0  0  0  0  0  0 21  0  0
    0.3386   -4.4492    1.5602 H   0  0  0  0  0  0  0  0  0 22  0  0
   -0.0561   -5.1965    0.0680 H   0  0  0  0  0  0  0  0  0 23  0  0
   -2.2536   -3.4804    1.9806 C   0  0  0  0  0  0  0  0  0 24  0  0
   -1.5865   -2.5439    2.9571 C   0  0  0  0  0  0  0  0  0 25  0  0
   -0.4131   -2.8996    3.6074 C   0  0  0  0  0  0  0  0  0 26  0  0
    0.0218   -3.8768    3.5023 H   0  0  0  0  0  0  0  0  0 36  0  0
    0.2316   -2.0010    4.4331 C   0  0  0  0  0  0  0  0  0 27  0  0
    1.1381   -2.2936    4.9412 H   0  0  0  0  0  0  0  0  0 35  0  0
   -0.2905   -0.7329    4.6215 C   0  0  0  0  0  0  0  0  0 28  0  0
    0.3263    0.1897    5.4215 O   0  0  0  0  0  0  0  0  0 33  0  0
    1.1171   -0.1916    5.8302 H   0  0  0  0  0  0  0  0  0 34  0  0
   -1.4724   -0.3732    3.9934 C   0  0  0  0  0  0  0  0  0 29  0  0
   -1.8450    0.6300    4.1384 H   0  0  0  0  0  0  0  0  0 32  0  0
   -2.0951   -1.2644    3.1483 C   0  0  0  0  0  0  0  0  0 30  0  0
   -3.0103   -0.9705    2.6650 H   0  0  0  0  0  0  0  0  0 31  0  0
   -3.2126   -3.0443    1.6829 H   0  0  0  0  0  0  0  0  0 37  0  0
   -2.4767   -4.4574    2.4250 H   0  0  0  0  0  0  0  0  0 38  0  0
    0.7498   -2.4591    0.8034 N   0  0  0  0  0  0  0  0  0 16  0  0
    1.2394   -1.3803    0.3698 N   0  0  0  0  0  0  0  0  0 17  0  0
    1.8176    0.4941   -0.9814 H   0  0  0  0  0  0  0  0  0 40  0  0
    0.1564    0.5294   -2.4006 C   0  0  0  0  0  0  0  0  0 41  0  0
   -0.7575   -0.2198   -2.7166 O   0  0  0  0  0  0  0  0  0 42  0  0
    0.7098    1.3589   -3.2833 N   0  0  0  0  0  0  0  0  0 43  0  0
    0.1854    1.3896   -4.6476 C   0  0  0  0  0  0  0  0  0 44  0  0
   -0.6518    0.7010   -4.7052 H   0  0  0  0  0  0  0  0  0 45  0  0
    0.9561    1.0824   -5.3538 H   0  0  0  0  0  0  0  0  0 57  0  0
   -0.2508    2.8155   -4.9985 C   0  0  0  0  0  0  0  0  0 46  0  0
   -1.0809    3.0901   -4.3460 H   0  0  0  0  0  0  0  0  0 55  0  0
   -0.5743    2.8465   -6.0324 H   0  0  0  0  0  0  0  0  0 56  0  0
    0.8942    3.6882   -4.8344 N   0  0  0  0  0  0  0  0  0 47  0  0
    0.7045    4.6117   -5.1754 H   0  0  0  0  0  0  0  0  0 48  0  0
    1.4033    3.6754   -3.4811 C   0  0  0  0  0  0  0  0  0 49  0  0
    0.6308    4.0012   -2.7736 H   0  0  0  0  0  0  0  0  0 53  0  0
    2.2547    4.3472   -3.4071 H   0  0  0  0  0  0  0  0  0 54  0  0
    1.8463    2.2520   -3.1329 C   0  0  0  0  0  0  0  0  0 50  0  0
    2.2130    2.2214   -2.1094 H   0  0  0  0  0  0  0  0  0 51  0  0
    2.6311    1.9603   -3.8289 H   0  0  0  0  0  0  0  0  0 52  0  0
    2.7871    2.5244    0.5595 H   0  0  0  0  0  0  0  0  0 58  0  0
  1  2  1  0
  1  3  1  0
  1  4  1  0
  4  5  1  0
  4  6  1  0
  4  7  1  0
  7  8  1  0
  8  9  1  0
  8 10  1  0
  8 11  1  0
  7 12  1  6
  7 13  1  0
 13 14  1  0
 14 15  4  0
 15 16  1  0
 15 17  4  0
 17 18  1  0
 18 19  1  6
 18 20  1  0
 20 21  1  0
 20 22  1  0
 20 23  1  0
 18 24  1  0
 24 25  1  0
 25 26  4  0
 26 27  1  0
 26 28  4  0
 28 29  1  0
 28 30  4  0
 30 31  1  0
 31 32  1  0
 30 33  4  0
 33 34  1  0
 33 35  4  0
 35 36  1  0
 24 37  1  0
 24 38  1  0
 17 39  4  0
 39 40  4  0
 13 41  1  1
 13 42  1  0
 42 43  2  0
 42 44  1  0
 44 45  1  0
 45 46  1  0
 45 47  1  0
 45 48  1  0
 48 49  1  0
 48 50  1  0
 48 51  1  0
 51 52  1  0
 51 53  1  0
 53 54  1  0
 53 55  1  0
 53 56  1  0
 56 57  1  0
 56 58  1  0
  1 59  1  0
 40 14  4  0
 56 44  1  0
 35 25  4  0
M  CHG  1  20   1
M  END
>  <sample_id>  (254)
train::CC[C@H](C)[C@@H](C(=O)N1CCNCC1)n1cc([C@@H]([NH3+])Cc2ccc(O)cc2)nn1__gen0001

>  <partition>  (254)
BAT_EXTERNAL_CONFIRM

>  <method>  (254)
BA_seed193

>  <candidate>  (254)
primary

$$$$
train::CC[C@H](C)[C@@H](C(=O)N1CCNCC1)n1cc([C@@H]([NH3+])Cc2ccc(O)cc2)nn1__gen0002
     RDKit          3D

 59 61  0  0  0  0  0  0  0  0999 V2000
    0.1081   -3.5845   -2.6695 C   0  0  0  0  0  0  0  0  0  0  0  0
   -0.1261   -4.6466   -2.7118 H   0  0  0  0  0  0  0  0  0  1  0  0
    0.1797   -3.2171   -3.6932 H   0  0  0  0  0  0  0  0  0  2  0  0
   -0.9643   -2.8319   -1.8834 C   0  0  0  0  0  0  0  0  0  3  0  0
   -1.9118   -2.9086   -2.4174 H   0  0  0  0  0  0  0  0  0  4  0  0
   -1.1026   -3.3282   -0.9170 H   0  0  0  0  0  0  0  0  0  5  0  0
   -0.6691   -1.3547   -1.6565 C   0  0  2  0  0  0  0  0  0  6  0  0
   -0.5365   -0.5842   -2.9686 C   0  0  0  0  0  0  0  0  0  7  0  0
    0.3631   -0.8889   -3.5064 H   0  0  0  0  0  0  0  0  0  8  0  0
   -1.3926   -0.7678   -3.6053 H   0  0  0  0  0  0  0  0  0  9  0  0
   -0.4853    0.4866   -2.7860 H   0  0  0  0  0  0  0  0  0 10  0  0
   -1.5272   -0.9410   -1.1088 H   0  0  0  0  0  0  0  0  0 11  0  0
    0.5760   -1.1322   -0.7912 C   0  0  1  0  0  0  0  0  0 12  0  0
    0.8013    0.2695   -0.5827 N   0  0  0  0  0  0  0  0  0 13  0  0
    0.1065    1.0645    0.2731 C   0  0  0  0  0  0  0  0  0 14  0  0
   -0.8054    0.7370    0.7167 H   0  0  0  0  0  0  0  0  0 39  0  0
    0.8555    2.2182    0.3035 C   0  0  0  0  0  0  0  0  0 15  0  0
    0.6500    3.4551    1.1425 C   0  0  2  0  0  0  0  0  0 18  0  0
    1.6318    3.8041    1.4783 H   0  0  0  0  0  0  0  0  0 19  0  0
   -0.2043    3.0473    2.3313 N   0  0  0  0  0  0  0  0  0 20  0  0
    0.3325    2.5045    2.9857 H   0  0  0  0  0  0  0  0  0 21  0  0
   -0.5689    3.8749    2.7614 H   0  0  0  0  0  0  0  0  0 22  0  0
   -0.9935    2.4967    1.9251 H   0  0  0  0  0  0  0  0  0 23  0  0
   -0.0834    4.5482    0.3894 C   0  0  0  0  0  0  0  0  0 24  0  0
   -1.4472    4.0511   -0.0734 C   0  0  0  0  0  0  0  0  0 25  0  0
   -2.5293    4.0404    0.8087 C   0  0  0  0  0  0  0  0  0 26  0  0
   -2.4504    4.4925    1.7895 H   0  0  0  0  0  0  0  0  0 36  0  0
   -3.7488    3.5317    0.4277 C   0  0  0  0  0  0  0  0  0 27  0  0
   -4.5851    3.5356    1.1112 H   0  0  0  0  0  0  0  0  0 35  0  0
   -3.9168    3.0134   -0.8535 C   0  0  0  0  0  0  0  0  0 28  0  0
   -5.0941    2.4968   -1.2966 O   0  0  0  0  0  0  0  0  0 33  0  0
   -5.7745    2.5560   -0.6178 H   0  0  0  0  0  0  0  0  0 34  0  0
   -2.8379    3.0198   -1.7440 C   0  0  0  0  0  0  0  0  0 29  0  0
   -2.9851    2.6441   -2.7420 H   0  0  0  0  0  0  0  0  0 32  0  0
   -1.6238    3.5258   -1.3483 C   0  0  0  0  0  0  0  0  0 30  0  0
   -0.7875    3.5114   -2.0256 H   0  0  0  0  0  0  0  0  0 31  0  0
    0.5157    4.8062   -0.4755 H   0  0  0  0  0  0  0  0  0 37  0  0
   -0.1851    5.4289    1.0091 H   0  0  0  0  0  0  0  0  0 38  0  0
    1.8785    2.0793   -0.5583 N   0  0  0  0  0  0  0  0  0 16  0  0
    1.8351    0.9269   -1.0720 N   0  0  0  0  0  0  0  0  0 17  0  0
    1.4600   -1.5646   -1.2758 H   0  0  0  0  0  0  0  0  0 40  0  0
    0.4001   -1.6849    0.6399 C   0  0  0  0  0  0  0  0  0 41  0  0
   -0.6902   -1.6063    1.1787 O   0  0  0  0  0  0  0  0  0 42  0  0
    1.5034   -2.0996    1.2841 N   0  0  0  0  0  0  0  0  0 43  0  0
    1.3751   -2.6960    2.5971 C   0  0  0  0  0  0  0  0  0 44  0  0
    1.9481   -2.1201    3.3246 H   0  0  0  0  0  0  0  0  0 45  0  0
    0.3117   -2.6845    2.8798 H   0  0  0  0  0  0  0  0  0 57  0  0
    1.8942   -4.1500    2.5316 C   0  0  0  0  0  0  0  0  0 46  0  0
    1.8539   -4.5980    3.5292 H   0  0  0  0  0  0  0  0  0 55  0  0
    1.2780   -4.7447    1.8488 H   0  0  0  0  0  0  0  0  0 56  0  0
    3.2686   -4.2145    2.0579 N   0  0  0  0  0  0  0  0  0 47  0  0
    3.8528   -3.8198    2.7797 H   0  0  0  0  0  0  0  0  0 48  0  0
    3.3820   -3.5638    0.7649 C   0  0  0  0  0  0  0  0  0 49  0  0
    2.7942   -4.1312    0.0385 H   0  0  0  0  0  0  0  0  0 53  0  0
    4.4378   -3.5642    0.4666 H   0  0  0  0  0  0  0  0  0 54  0  0
    2.8808   -2.1004    0.8258 C   0  0  0  0  0  0  0  0  0 50  0  0
    3.4927   -1.5326    1.5375 H   0  0  0  0  0  0  0  0  0 51  0  0
    2.9721   -1.6278   -0.1554 H   0  0  0  0  0  0  0  0  0 52  0  0
    1.0878   -3.4778   -2.2019 H   0  0  0  0  0  0  0  0  0 58  0  0
  1  2  1  0
  1  3  1  0
  1  4  1  0
  4  5  1  0
  4  6  1  0
  4  7  1  0
  7  8  1  0
  8  9  1  0
  8 10  1  0
  8 11  1  0
  7 12  1  1
  7 13  1  0
 13 14  1  0
 14 15  4  0
 15 16  1  0
 15 17  4  0
 17 18  1  0
 18 19  1  6
 18 20  1  0
 20 21  1  0
 20 22  1  0
 20 23  1  0
 18 24  1  0
 24 25  1  0
 25 26  4  0
 26 27  1  0
 26 28  4  0
 28 29  1  0
 28 30  4  0
 30 31  1  0
 31 32  1  0
 30 33  4  0
 33 34  1  0
 33 35  4  0
 35 36  1  0
 24 37  1  0
 24 38  1  0
 17 39  4  0
 39 40  4  0
 13 41  1  1
 13 42  1  0
 42 43  2  0
 42 44  1  0
 44 45  1  0
 45 46  1  0
 45 47  1  0
 45 48  1  0
 48 49  1  0
 48 50  1  0
 48 51  1  0
 51 52  1  0
 51 53  1  0
 53 54  1  0
 53 55  1  0
 53 56  1  0
 56 57  1  0
 56 58  1  0
  1 59  1  0
 40 14  4  0
 56 44  1  0
 35 25  4  0
M  CHG  1  20   1
M  END
>  <sample_id>  (255)
train::CC[C@H](C)[C@@H](C(=O)N1CCNCC1)n1cc([C@@H]([NH3+])Cc2ccc(O)cc2)nn1__gen0002

>  <partition>  (255)
BAT_EXTERNAL_CONFIRM

>  <method>  (255)
BA_seed193

>  <candidate>  (255)
primary

$$$$
train::Cc1ccc(_C=N\NC(=O)c2cc([N+](=O)[O-])cc([N+](=O)[O-])c2)o1__gen0000
     RDKit          3D

 33 34  0  0  0  0  0  0  0  0999 V2000
    4.3367   -4.2180   -0.9734 C   0  0  0  0  0  0  0  0  0  0  0  0
    3.2359   -3.2224   -0.8081 C   0  0  0  0  0  0  0  0  0  1  0  0
    2.2385   -2.8462   -1.6569 C   0  0  0  0  0  0  0  0  0  2  0  0
    2.0565   -3.2136   -2.6488 H   0  0  0  0  0  0  0  0  0 29  0  0
    1.4907   -1.8573   -0.9878 C   0  0  0  0  0  0  0  0  0  3  0  0
    0.6308   -1.3362   -1.3403 H   0  0  0  0  0  0  0  0  0 28  0  0
    2.0939   -1.7079    0.2400 C   0  0  0  0  0  0  0  0  0  4  0  0
    1.7848   -0.8610    1.3533 C   0  0  0  0  0  0  0  0  0  5  0  0
    0.8071   -0.0289    1.3161 N   0  0  0  0  0  0  0  0  0  6  0  0
    0.5436    0.7207    2.3700 N   0  0  0  0  0  0  0  0  0  7  0  0
   -0.4517    1.6492    2.4204 C   0  0  0  0  0  0  0  0  0  8  0  0
   -0.5757    2.3665    3.4001 O   0  0  0  0  0  0  0  0  0  9  0  0
   -1.3298    1.7856    1.2227 C   0  0  0  0  0  0  0  0  0 10  0  0
   -1.7023    0.7021    0.4365 C   0  0  0  0  0  0  0  0  0 11  0  0
   -1.3523   -0.2896    0.6549 H   0  0  0  0  0  0  0  0  0 24  0  0
   -2.5509    0.9001   -0.6443 C   0  0  0  0  0  0  0  0  0 12  0  0
   -2.9392   -0.2382   -1.4543 N   0  0  0  0  0  0  0  0  0 21  0  0
   -3.7005   -0.0322   -2.3732 O   0  0  0  0  0  0  0  0  0 22  0  0
   -2.4741   -1.3174   -1.1514 O   0  0  0  0  0  0  0  0  0 23  0  0
   -3.0472    2.1552   -0.9666 C   0  0  0  0  0  0  0  0  0 13  0  0
   -3.7074    2.3045   -1.8083 H   0  0  0  0  0  0  0  0  0 20  0  0
   -2.6627    3.2205   -0.1666 C   0  0  0  0  0  0  0  0  0 14  0  0
   -3.1705    4.5466   -0.4668 N   0  0  0  0  0  0  0  0  0 17  0  0
   -2.7216    5.4874    0.1656 O   0  0  0  0  0  0  0  0  0 18  0  0
   -3.9891    4.6438   -1.3513 O   0  0  0  0  0  0  0  0  0 19  0  0
   -1.8272    3.0511    0.9260 C   0  0  0  0  0  0  0  0  0 15  0  0
   -1.5551    3.8954    1.5430 H   0  0  0  0  0  0  0  0  0 16  0  0
    1.1375    0.6610    3.2045 H   0  0  0  0  0  0  0  0  0 25  0  0
    2.4227   -0.9702    2.2323 H   0  0  0  0  0  0  0  0  0 26  0  0
    3.1524   -2.5434    0.3438 O   0  0  0  0  0  0  0  0  0 27  0  0
    5.2961   -3.7223   -0.9903 H   0  0  0  0  0  0  0  0  0 30  0  0
    4.3331   -4.9194   -0.1404 H   0  0  0  0  0  0  0  0  0 31  0  0
    4.1970   -4.7654   -1.9006 H   0  0  0  0  0  0  0  0  0 32  0  0
  1  2  1  0
  2  3  4  0
  3  4  1  0
  3  5  4  0
  5  6  1  0
  5  7  4  0
  7  8  1  0
  8  9  2  0
  9 10  1  0
 10 11  1  0
 11 12  2  0
 11 13  1  0
 13 14  4  0
 14 15  1  0
 14 16  4  0
 16 17  1  0
 17 18  2  0
 17 19  1  0
 16 20  4  0
 20 21  1  0
 20 22  4  0
 22 23  1  0
 23 24  2  0
 23 25  1  0
 22 26  4  0
 26 27  1  0
 10 28  1  0
  8 29  1  0
  7 30  4  0
  1 31  1  0
  1 32  1  0
  1 33  1  0
 30  2  4  0
 26 13  4  0
M  CHG  4  17   1  19  -1  23   1  25  -1
M  END
>  <sample_id>  (256)
train::Cc1ccc(_C=N\NC(=O)c2cc([N+](=O)[O-])cc([N+](=O)[O-])c2)o1__gen0000

>  <partition>  (256)
BAT_EXTERNAL_CONFIRM

>  <method>  (256)
BA_seed193

>  <candidate>  (256)
primary

$$$$
train::Cc1ccc(_C=N\NC(=O)c2cc([N+](=O)[O-])cc([N+](=O)[O-])c2)o1__gen0001
     RDKit          3D

 33 34  0  0  0  0  0  0  0  0999 V2000
    2.9178    4.6788   -4.2686 C   0  0  0  0  0  0  0  0  0  0  0  0
    2.9216    3.7654   -3.0998 C   0  0  0  0  0  0  0  0  0  1  0  0
    3.8906    3.5028   -2.1645 C   0  0  0  0  0  0  0  0  0  2  0  0
    4.8724    3.9159   -2.1229 H   0  0  0  0  0  0  0  0  0 29  0  0
    3.3439    2.5535   -1.2740 C   0  0  0  0  0  0  0  0  0  3  0  0
    3.8013    2.1121   -0.4161 H   0  0  0  0  0  0  0  0  0 28  0  0
    2.0677    2.3106   -1.7321 C   0  0  0  0  0  0  0  0  0  4  0  0
    1.0313    1.4493   -1.2524 C   0  0  0  0  0  0  0  0  0  5  0  0
    1.1773    0.7301   -0.2002 N   0  0  0  0  0  0  0  0  0  6  0  0
    0.1945   -0.0711    0.1998 N   0  0  0  0  0  0  0  0  0  7  0  0
    0.2883   -0.8218    1.3321 C   0  0  0  0  0  0  0  0  0  8  0  0
    1.2445   -0.7998    2.0667 O   0  0  0  0  0  0  0  0  0  9  0  0
   -0.9320   -1.6471    1.6151 C   0  0  0  0  0  0  0  0  0 10  0  0
   -1.6821   -2.2641    0.6236 C   0  0  0  0  0  0  0  0  0 11  0  0
   -1.4387   -2.1612   -0.4255 H   0  0  0  0  0  0  0  0  0 24  0  0
   -2.7631   -3.0623    0.9771 C   0  0  0  0  0  0  0  0  0 12  0  0
   -3.5457   -3.6946   -0.0729 N   0  0  0  0  0  0  0  0  0 21  0  0
   -4.4440   -4.4386    0.2605 O   0  0  0  0  0  0  0  0  0 22  0  0
   -3.2461   -3.4137   -1.2142 O   0  0  0  0  0  0  0  0  0 23  0  0
   -3.1260   -3.2656    2.2983 C   0  0  0  0  0  0  0  0  0 13  0  0
   -3.9631   -3.8861    2.5488 H   0  0  0  0  0  0  0  0  0 20  0  0
   -2.3489   -2.6601    3.2819 C   0  0  0  0  0  0  0  0  0 14  0  0
   -2.6795   -2.8505    4.6882 N   0  0  0  0  0  0  0  0  0 17  0  0
   -1.9835   -2.2931    5.4905 O   0  0  0  0  0  0  0  0  0 18  0  0
   -3.6383   -3.5562    4.9234 O   0  0  0  0  0  0  0  0  0 19  0  0
   -1.2679   -1.8589    2.9445 C   0  0  0  0  0  0  0  0  0 15  0  0
   -0.6630   -1.4171    3.7295 H   0  0  0  0  0  0  0  0  0 16  0  0
   -0.6694   -0.0743   -0.3650 H   0  0  0  0  0  0  0  0  0 25  0  0
    0.0984    1.4467   -1.8270 H   0  0  0  0  0  0  0  0  0 26  0  0
    1.8075    3.0466   -2.8404 O   0  0  0  0  0  0  0  0  0 27  0  0
    2.1838    5.4674   -4.1238 H   0  0  0  0  0  0  0  0  0 30  0  0
    3.9075    5.1155   -4.4049 H   0  0  0  0  0  0  0  0  0 31  0  0
    2.6431    4.1417   -5.1760 H   0  0  0  0  0  0  0  0  0 32  0  0
  1  2  1  0
  2  3  4  0
  3  4  1  0
  3  5  4  0
  5  6  1  0
  5  7  4  0
  7  8  1  0
  8  9  2  0
  9 10  1  0
 10 11  1  0
 11 12  2  0
 11 13  1  0
 13 14  4  0
 14 15  1  0
 14 16  4  0
 16 17  1  0
 17 18  2  0
 17 19  1  0
 16 20  4  0
 20 21  1  0
 20 22  4  0
 22 23  1  0
 23 24  2  0
 23 25  1  0
 22 26  4  0
 26 27  1  0
 10 28  1  0
  8 29  1  0
  7 30  4  0
  1 31  1  0
  1 32  1  0
  1 33  1  0
 30  2  4  0
 26 13  4  0
M  CHG  4  17   1  19  -1  23   1  25  -1
M  END
>  <sample_id>  (257)
train::Cc1ccc(_C=N\NC(=O)c2cc([N+](=O)[O-])cc([N+](=O)[O-])c2)o1__gen0001

>  <partition>  (257)
BAT_EXTERNAL_CONFIRM

>  <method>  (257)
BA_seed193

>  <candidate>  (257)
primary

$$$$
train::Cc1ccc(_C=N\NC(=O)c2cc([N+](=O)[O-])cc([N+](=O)[O-])c2)o1__gen0002
     RDKit          3D

 33 34  0  0  0  0  0  0  0  0999 V2000
    2.8602    5.3584   -0.3206 C   0  0  0  0  0  0  0  0  0  0  0  0
    2.1394    4.0571   -0.1537 C   0  0  0  0  0  0  0  0  0  1  0  0
    1.6329    3.4407    0.9552 C   0  0  0  0  0  0  0  0  0  2  0  0
    1.6432    3.8196    1.9561 H   0  0  0  0  0  0  0  0  0 29  0  0
    1.0784    2.2186    0.5144 C   0  0  0  0  0  0  0  0  0  3  0  0
    0.5957    1.4736    1.1079 H   0  0  0  0  0  0  0  0  0 28  0  0
    1.2998    2.1744   -0.8445 C   0  0  0  0  0  0  0  0  0  4  0  0
    0.9728    1.1913   -1.8238 C   0  0  0  0  0  0  0  0  0  5  0  0
    0.3363    0.1236   -1.5088 N   0  0  0  0  0  0  0  0  0  6  0  0
    0.0781   -0.7791   -2.4556 N   0  0  0  0  0  0  0  0  0  7  0  0
   -0.6147   -1.9390   -2.2251 C   0  0  0  0  0  0  0  0  0  8  0  0
   -0.9013   -2.6914   -3.1286 O   0  0  0  0  0  0  0  0  0  9  0  0
   -0.9984   -2.1875   -0.8074 C   0  0  0  0  0  0  0  0  0 10  0  0
   -0.1689   -1.9072    0.2749 C   0  0  0  0  0  0  0  0  0 11  0  0
    0.7981   -1.4547    0.1266 H   0  0  0  0  0  0  0  0  0 24  0  0
   -0.5836   -2.2117    1.5621 C   0  0  0  0  0  0  0  0  0 12  0  0
    0.2948   -1.9031    2.6685 N   0  0  0  0  0  0  0  0  0 21  0  0
   -0.0660   -2.2350    3.7837 O   0  0  0  0  0  0  0  0  0 22  0  0
    1.3512   -1.3493    2.4153 O   0  0  0  0  0  0  0  0  0 23  0  0
   -1.8119   -2.8085    1.8207 C   0  0  0  0  0  0  0  0  0 13  0  0
   -2.1278   -3.0409    2.8300 H   0  0  0  0  0  0  0  0  0 20  0  0
   -2.6203   -3.0789    0.7270 C   0  0  0  0  0  0  0  0  0 14  0  0
   -3.9320   -3.7031    0.9660 N   0  0  0  0  0  0  0  0  0 17  0  0
   -4.1833   -4.0243    2.0969 O   0  0  0  0  0  0  0  0  0 18  0  0
   -4.6450   -3.8444    0.0106 O   0  0  0  0  0  0  0  0  0 19  0  0
   -2.2296   -2.7979   -0.5725 C   0  0  0  0  0  0  0  0  0 15  0  0
   -2.8847   -3.0469   -1.3931 H   0  0  0  0  0  0  0  0  0 16  0  0
    0.3378   -0.6019   -3.4362 H   0  0  0  0  0  0  0  0  0 25  0  0
    1.3027    1.4082   -2.8431 H   0  0  0  0  0  0  0  0  0 26  0  0
    1.9567    3.2961   -1.2434 O   0  0  0  0  0  0  0  0  0 27  0  0
    3.8775    5.1933   -0.6338 H   0  0  0  0  0  0  0  0  0 30  0  0
    2.3508    5.9674   -1.0596 H   0  0  0  0  0  0  0  0  0 31  0  0
    2.8610    5.8826    0.6341 H   0  0  0  0  0  0  0  0  0 32  0  0
  1  2  1  0
  2  3  4  0
  3  4  1  0
  3  5  4  0
  5  6  1  0
  5  7  4  0
  7  8  1  0
  8  9  2  0
  9 10  1  0
 10 11  1  0
 11 12  2  0
 11 13  1  0
 13 14  4  0
 14 15  1  0
 14 16  4  0
 16 17  1  0
 17 18  2  0
 17 19  1  0
 16 20  4  0
 20 21  1  0
 20 22  4  0
 22 23  1  0
 23 24  2  0
 23 25  1  0
 22 26  4  0
 26 27  1  0
 10 28  1  0
  8 29  1  0
  7 30  4  0
  1 31  1  0
  1 32  1  0
  1 33  1  0
 30  2  4  0
 26 13  4  0
M  CHG  4  17   1  19  -1  23   1  25  -1
M  END
>  <sample_id>  (258)
train::Cc1ccc(_C=N\NC(=O)c2cc([N+](=O)[O-])cc([N+](=O)[O-])c2)o1__gen0002

>  <partition>  (258)
BAT_EXTERNAL_CONFIRM

>  <method>  (258)
BA_seed193

>  <candidate>  (258)
primary

$$$$
train::O=C(NC(=S)Nc1cnc2ccccc2c1)c1ccccc1__gen0000
     RDKit          3D

 35 37  0  0  0  0  0  0  0  0999 V2000
   -2.7679   -1.8431   -2.4022 O   0  0  0  0  0  0  0  0  0  0  0  0
   -1.8251   -1.1813   -2.0177 C   0  0  0  0  0  0  0  0  0  1  0  0
   -1.8023    0.2136   -1.8810 N   0  0  0  0  0  0  0  0  0  2  0  0
   -2.7662    1.1698   -1.9003 C   0  0  0  0  0  0  0  0  0  3  0  0
   -2.4207    2.2313   -1.1024 N   0  0  0  0  0  0  0  0  0  4  0  0
   -1.3092    2.1808   -0.2326 C   0  0  0  0  0  0  0  0  0  5  0  0
   -1.1721    1.1781    0.7049 C   0  0  0  0  0  0  0  0  0  6  0  0
   -1.9819    0.4827    0.8952 H   0  0  0  0  0  0  0  0  0 20  0  0
    0.0485    1.0281    1.3795 C   0  0  0  0  0  0  0  0  0  7  0  0
    0.3089   -0.0196    2.2777 C   0  0  0  0  0  0  0  0  0  8  0  0
   -0.4794   -0.7277    2.4970 H   0  0  0  0  0  0  0  0  0 19  0  0
    1.5530   -0.1423    2.8559 C   0  0  0  0  0  0  0  0  0  9  0  0
    1.7457   -0.9644    3.5263 H   0  0  0  0  0  0  0  0  0 18  0  0
    2.5673    0.7655    2.5633 C   0  0  0  0  0  0  0  0  0 10  0  0
    3.5361    0.6568    3.0293 H   0  0  0  0  0  0  0  0  0 17  0  0
    2.3441    1.8096    1.6862 C   0  0  0  0  0  0  0  0  0 11  0  0
    3.1134    2.5325    1.4671 H   0  0  0  0  0  0  0  0  0 16  0  0
    1.0783    1.9654    1.1006 C   0  0  0  0  0  0  0  0  0 12  0  0
    0.8835    2.9955    0.2397 N   0  0  0  0  0  0  0  0  0 13  0  0
   -0.2410    3.0909   -0.3988 C   0  0  0  0  0  0  0  0  0 14  0  0
   -0.3224    3.9146   -1.0983 H   0  0  0  0  0  0  0  0  0 15  0  0
   -3.0151    3.0545   -1.1459 H   0  0  0  0  0  0  0  0  0 21  0  0
   -4.1847    1.1789   -2.7102 S   0  0  0  0  0  0  0  0  0 22  0  0
   -0.8857    0.5133   -1.5844 H   0  0  0  0  0  0  0  0  0 23  0  0
   -0.5565   -1.7696   -1.4691 C   0  0  0  0  0  0  0  0  0 24  0  0
    0.6844   -1.1460   -1.5835 C   0  0  0  0  0  0  0  0  0 25  0  0
    0.8064   -0.2714   -2.2151 H   0  0  0  0  0  0  0  0  0 34  0  0
    1.7757   -1.6652   -0.9152 C   0  0  0  0  0  0  0  0  0 26  0  0
    2.7349   -1.1658   -0.9978 H   0  0  0  0  0  0  0  0  0 33  0  0
    1.6419   -2.7923   -0.1316 C   0  0  0  0  0  0  0  0  0 27  0  0
    2.4972   -3.1750    0.3976 H   0  0  0  0  0  0  0  0  0 32  0  0
    0.4139   -3.4270   -0.0355 C   0  0  0  0  0  0  0  0  0 28  0  0
    0.3173   -4.3247    0.5548 H   0  0  0  0  0  0  0  0  0 31  0  0
   -0.6834   -2.9237   -0.7052 C   0  0  0  0  0  0  0  0  0 29  0  0
   -1.6370   -3.4226   -0.6484 H   0  0  0  0  0  0  0  0  0 30  0  0
  1  2  2  0
  2  3  1  0
  3  4  1  0
  4  5  1  0
  5  6  1  0
  6  7  4  0
  7  8  1  0
  7  9  4  0
  9 10  4  0
 10 11  1  0
 10 12  4  0
 12 13  1  0
 12 14  4  0
 14 15  1  0
 14 16  4  0
 16 17  1  0
 16 18  4  0
 18 19  4  0
 19 20  4  0
 20 21  1  0
  5 22  1  0
  4 23  2  0
  3 24  1  0
  2 25  1  0
 25 26  4  0
 26 27  1  0
 26 28  4  0
 28 29  1  0
 28 30  4  0
 30 31  1  0
 30 32  4  0
 32 33  1  0
 32 34  4  0
 34 35  1  0
 20  6  4  0
 34 25  4  0
 18  9  4  0
M  END
>  <sample_id>  (259)
train::O=C(NC(=S)Nc1cnc2ccccc2c1)c1ccccc1__gen0000

>  <partition>  (259)
BAT_EXTERNAL_CONFIRM

>  <method>  (259)
BA_seed193

>  <candidate>  (259)
primary

$$$$
train::O=C(NC(=S)Nc1cnc2ccccc2c1)c1ccccc1__gen0001
     RDKit          3D

 35 37  0  0  0  0  0  0  0  0999 V2000
   -1.3755    1.0054   -1.0550 O   0  0  0  0  0  0  0  0  0  0  0  0
   -1.0450    0.5118   -2.1198 C   0  0  0  0  0  0  0  0  0  1  0  0
   -0.0477   -0.4308   -2.2049 N   0  0  0  0  0  0  0  0  0  2  0  0
    0.7613   -0.9442   -1.2013 C   0  0  0  0  0  0  0  0  0  3  0  0
    0.5164   -0.4815    0.0278 N   0  0  0  0  0  0  0  0  0  4  0  0
    1.1101   -0.7338    1.2736 C   0  0  0  0  0  0  0  0  0  5  0  0
    0.5780   -0.0821    2.3664 C   0  0  0  0  0  0  0  0  0  6  0  0
   -0.2282    0.6254    2.2501 H   0  0  0  0  0  0  0  0  0 20  0  0
    1.1305   -0.3090    3.6323 C   0  0  0  0  0  0  0  0  0  7  0  0
    0.6765    0.3263    4.8000 C   0  0  0  0  0  0  0  0  0  8  0  0
   -0.1294    1.0407    4.7242 H   0  0  0  0  0  0  0  0  0 19  0  0
    1.2692    0.0574    6.0165 C   0  0  0  0  0  0  0  0  0  9  0  0
    0.8990    0.5490    6.9066 H   0  0  0  0  0  0  0  0  0 18  0  0
    2.3153   -0.8584    6.1090 C   0  0  0  0  0  0  0  0  0 10  0  0
    2.7542   -1.0591    7.0716 H   0  0  0  0  0  0  0  0  0 17  0  0
    2.7727   -1.5072    4.9897 C   0  0  0  0  0  0  0  0  0 11  0  0
    3.5990   -2.2031    5.0372 H   0  0  0  0  0  0  0  0  0 16  0  0
    2.2125   -1.2341    3.7240 C   0  0  0  0  0  0  0  0  0 12  0  0
    2.6832   -1.8910    2.6498 N   0  0  0  0  0  0  0  0  0 13  0  0
    2.1672   -1.6424    1.4787 C   0  0  0  0  0  0  0  0  0 14  0  0
    2.5941   -2.1969    0.6499 H   0  0  0  0  0  0  0  0  0 15  0  0
   -0.2470    0.2104    0.0649 H   0  0  0  0  0  0  0  0  0 21  0  0
    1.8782   -2.0602   -1.7005 S   0  0  0  0  0  0  0  0  0 22  0  0
    0.1405   -0.8547   -3.1082 H   0  0  0  0  0  0  0  0  0 23  0  0
   -1.6868    0.8652   -3.3945 C   0  0  0  0  0  0  0  0  0 24  0  0
   -1.0413    0.7599   -4.6369 C   0  0  0  0  0  0  0  0  0 25  0  0
   -0.0083    0.4445   -4.6988 H   0  0  0  0  0  0  0  0  0 34  0  0
   -1.7046    1.1238   -5.7911 C   0  0  0  0  0  0  0  0  0 26  0  0
   -1.1941    1.0542   -6.7413 H   0  0  0  0  0  0  0  0  0 33  0  0
   -3.0135    1.5704   -5.7408 C   0  0  0  0  0  0  0  0  0 27  0  0
   -3.5285    1.8446   -6.6488 H   0  0  0  0  0  0  0  0  0 32  0  0
   -3.6584    1.6776   -4.5166 C   0  0  0  0  0  0  0  0  0 28  0  0
   -4.6715    2.0489   -4.4662 H   0  0  0  0  0  0  0  0  0 31  0  0
   -2.9989    1.3387   -3.3526 C   0  0  0  0  0  0  0  0  0 29  0  0
   -3.4792    1.4343   -2.3950 H   0  0  0  0  0  0  0  0  0 30  0  0
  1  2  2  0
  2  3  1  0
  3  4  1  0
  4  5  1  0
  5  6  1  0
  6  7  4  0
  7  8  1  0
  7  9  4  0
  9 10  4  0
 10 11  1  0
 10 12  4  0
 12 13  1  0
 12 14  4  0
 14 15  1  0
 14 16  4  0
 16 17  1  0
 16 18  4  0
 18 19  4  0
 19 20  4  0
 20 21  1  0
  5 22  1  0
  4 23  2  0
  3 24  1  0
  2 25  1  0
 25 26  4  0
 26 27  1  0
 26 28  4  0
 28 29  1  0
 28 30  4  0
 30 31  1  0
 30 32  4  0
 32 33  1  0
 32 34  4  0
 34 35  1  0
 20  6  4  0
 34 25  4  0
 18  9  4  0
M  END
>  <sample_id>  (260)
train::O=C(NC(=S)Nc1cnc2ccccc2c1)c1ccccc1__gen0001

>  <partition>  (260)
BAT_EXTERNAL_CONFIRM

>  <method>  (260)
BA_seed193

>  <candidate>  (260)
primary

$$$$
train::O=C(NC(=S)Nc1cnc2ccccc2c1)c1ccccc1__gen0002
     RDKit          3D

 35 37  0  0  0  0  0  0  0  0999 V2000
   -2.3881   -0.4892    0.0947 O   0  0  0  0  0  0  0  0  0  0  0  0
   -2.1863   -0.3013    1.2840 C   0  0  0  0  0  0  0  0  0  1  0  0
   -0.9651    0.0519    1.7745 N   0  0  0  0  0  0  0  0  0  2  0  0
    0.2361    0.2402    1.1004 C   0  0  0  0  0  0  0  0  0  3  0  0
    0.1915    0.0146   -0.2253 N   0  0  0  0  0  0  0  0  0  4  0  0
    1.1742    0.0852   -1.2151 C   0  0  0  0  0  0  0  0  0  5  0  0
    2.4939    0.4437   -1.0002 C   0  0  0  0  0  0  0  0  0  6  0  0
    2.8559    0.6724   -0.0111 H   0  0  0  0  0  0  0  0  0 20  0  0
    3.3811    0.4655   -2.0910 C   0  0  0  0  0  0  0  0  0  7  0  0
    4.7355    0.8188   -1.9690 C   0  0  0  0  0  0  0  0  0  8  0  0
    5.1211    1.0658   -0.9981 H   0  0  0  0  0  0  0  0  0 19  0  0
    5.5516    0.8168   -3.0762 C   0  0  0  0  0  0  0  0  0  9  0  0
    6.5863    1.0975   -2.9773 H   0  0  0  0  0  0  0  0  0 18  0  0
    5.0440    0.4842   -4.3331 C   0  0  0  0  0  0  0  0  0 10  0  0
    5.6968    0.5101   -5.1963 H   0  0  0  0  0  0  0  0  0 17  0  0
    3.7167    0.1499   -4.4867 C   0  0  0  0  0  0  0  0  0 11  0  0
    3.3162   -0.1033   -5.4554 H   0  0  0  0  0  0  0  0  0 16  0  0
    2.8639    0.1338   -3.3772 C   0  0  0  0  0  0  0  0  0 12  0  0
    1.5619   -0.2012   -3.5679 N   0  0  0  0  0  0  0  0  0 13  0  0
    0.7686   -0.2165   -2.5205 C   0  0  0  0  0  0  0  0  0 14  0  0
   -0.2560   -0.4875   -2.7265 H   0  0  0  0  0  0  0  0  0 15  0  0
   -0.7399   -0.2543   -0.5641 H   0  0  0  0  0  0  0  0  0 21  0  0
    1.5254    0.7155    2.0178 S   0  0  0  0  0  0  0  0  0 22  0  0
   -0.8781    0.2563    2.7618 H   0  0  0  0  0  0  0  0  0 23  0  0
   -3.2647   -0.4111    2.2969 C   0  0  0  0  0  0  0  0  0 24  0  0
   -4.5694   -0.1866    1.8737 C   0  0  0  0  0  0  0  0  0 25  0  0
   -4.7504    0.0543    0.8381 H   0  0  0  0  0  0  0  0  0 34  0  0
   -5.6169   -0.2845    2.7717 C   0  0  0  0  0  0  0  0  0 26  0  0
   -6.6267   -0.0958    2.4369 H   0  0  0  0  0  0  0  0  0 33  0  0
   -5.3756   -0.6121    4.0980 C   0  0  0  0  0  0  0  0  0 27  0  0
   -6.1964   -0.6853    4.7942 H   0  0  0  0  0  0  0  0  0 32  0  0
   -4.0764   -0.8688    4.5107 C   0  0  0  0  0  0  0  0  0 28  0  0
   -3.8897   -1.1441    5.5385 H   0  0  0  0  0  0  0  0  0 31  0  0
   -3.0195   -0.7566    3.6269 C   0  0  0  0  0  0  0  0  0 29  0  0
   -2.0216   -0.9783    3.9723 H   0  0  0  0  0  0  0  0  0 30  0  0
  1  2  2  0
  2  3  1  0
  3  4  1  0
  4  5  1  0
  5  6  1  0
  6  7  4  0
  7  8  1  0
  7  9  4  0
  9 10  4  0
 10 11  1  0
 10 12  4  0
 12 13  1  0
 12 14  4  0
 14 15  1  0
 14 16  4  0
 16 17  1  0
 16 18  4  0
 18 19  4  0
 19 20  4  0
 20 21  1  0
  5 22  1  0
  4 23  2  0
  3 24  1  0
  2 25  1  0
 25 26  4  0
 26 27  1  0
 26 28  4  0
 28 29  1  0
 28 30  4  0
 30 31  1  0
 30 32  4  0
 32 33  1  0
 32 34  4  0
 34 35  1  0
 20  6  4  0
 34 25  4  0
 18  9  4  0
M  END
>  <sample_id>  (261)
train::O=C(NC(=S)Nc1cnc2ccccc2c1)c1ccccc1__gen0002

>  <partition>  (261)
BAT_EXTERNAL_CONFIRM

>  <method>  (261)
BA_seed193

>  <candidate>  (261)
primary

$$$$
train::CCOc1ccc(Cn2nnc(C(=O)Nc3cc(OC)cc(OC)c3)c2N)cc1__gen0000
     RDKit          3D

 52 54  0  0  0  0  0  0  0  0999 V2000
   -1.6778    3.4297    7.2840 C   0  0  0  0  0  0  0  0  0  0  0  0
   -0.4796    2.5713    7.7195 C   0  0  0  0  0  0  0  0  0  1  0  0
    0.3278    2.1624    6.6068 O   0  0  0  0  0  0  0  0  0  2  0  0
   -0.0979    1.1696    5.7881 C   0  0  0  0  0  0  0  0  0  3  0  0
   -1.2383    0.3840    5.9970 C   0  0  0  0  0  0  0  0  0  4  0  0
   -1.8877    0.5407    6.8292 H   0  0  0  0  0  0  0  0  0 46  0  0
   -1.5546   -0.6175    5.0867 C   0  0  0  0  0  0  0  0  0  5  0  0
   -2.4397   -1.2259    5.2486 H   0  0  0  0  0  0  0  0  0 45  0  0
   -0.7419   -0.8782    3.9864 C   0  0  0  0  0  0  0  0  0  6  0  0
   -1.1154   -2.0054    3.0548 C   0  0  0  0  0  0  0  0  0 11  0  0
   -0.9237   -1.6801    1.6686 N   0  0  0  0  0  0  0  0  0 12  0  0
    0.1719   -1.8223    0.8882 C   0  0  0  0  0  0  0  0  0 13  0  0
    1.3506   -2.4198    1.2290 N   0  0  0  0  0  0  0  0  0 14  0  0
    1.6748   -2.3162    2.1808 H   0  0  0  0  0  0  0  0  0 15  0  0
    2.0386   -2.3323    0.4909 H   0  0  0  0  0  0  0  0  0 16  0  0
   -0.2255   -1.3239   -0.3594 C   0  0  0  0  0  0  0  0  0 17  0  0
    0.6044   -1.2253   -1.5465 C   0  0  0  0  0  0  0  0  0 20  0  0
    1.7827   -1.5695   -1.5072 O   0  0  0  0  0  0  0  0  0 21  0  0
   -0.0727   -0.7317   -2.6174 N   0  0  0  0  0  0  0  0  0 22  0  0
    0.3703   -0.5048   -3.9184 C   0  0  0  0  0  0  0  0  0 23  0  0
   -0.5559   -0.0069   -4.8321 C   0  0  0  0  0  0  0  0  0 24  0  0
   -1.5763    0.1733   -4.5139 H   0  0  0  0  0  0  0  0  0 41  0  0
   -0.1708    0.2303   -6.1391 C   0  0  0  0  0  0  0  0  0 25  0  0
   -1.0038    0.7114   -7.1140 O   0  0  0  0  0  0  0  0  0 36  0  0
   -2.3417    0.9653   -6.7849 C   0  0  0  0  0  0  0  0  0 37  0  0
   -2.4267    1.7406   -6.0202 H   0  0  0  0  0  0  0  0  0 38  0  0
   -2.8517    0.0506   -6.4451 H   0  0  0  0  0  0  0  0  0 39  0  0
   -2.8082    1.3181   -7.7090 H   0  0  0  0  0  0  0  0  0 40  0  0
    1.1408   -0.0222   -6.5308 C   0  0  0  0  0  0  0  0  0 26  0  0
    1.3963    0.2000   -7.5640 H   0  0  0  0  0  0  0  0  0 35  0  0
    2.0773   -0.5009   -5.6214 C   0  0  0  0  0  0  0  0  0 27  0  0
    3.3560   -0.7649   -5.9066 O   0  0  0  0  0  0  0  0  0 30  0  0
    3.8260   -0.5288   -7.2223 C   0  0  0  0  0  0  0  0  0 31  0  0
    3.7282    0.5262   -7.4939 H   0  0  0  0  0  0  0  0  0 32  0  0
    3.2979   -1.1358   -7.9561 H   0  0  0  0  0  0  0  0  0 33  0  0
    4.8825   -0.8095   -7.2083 H   0  0  0  0  0  0  0  0  0 34  0  0
    1.6865   -0.7506   -4.3085 C   0  0  0  0  0  0  0  0  0 28  0  0
    2.3936   -1.1312   -3.6036 H   0  0  0  0  0  0  0  0  0 29  0  0
   -1.0359   -0.5166   -2.4199 H   0  0  0  0  0  0  0  0  0 42  0  0
   -1.5169   -0.9207   -0.2297 N   0  0  0  0  0  0  0  0  0 18  0  0
   -1.9222   -1.1260    0.9521 N   0  0  0  0  0  0  0  0  0 19  0  0
   -0.5028   -2.9020    3.2742 H   0  0  0  0  0  0  0  0  0 43  0  0
   -2.1728   -2.2431    3.1752 H   0  0  0  0  0  0  0  0  0 44  0  0
    0.3865   -0.1028    3.7897 C   0  0  0  0  0  0  0  0  0  7  0  0
    1.0355   -0.2584    2.9511 H   0  0  0  0  0  0  0  0  0 10  0  0
    0.7052    0.9051    4.6783 C   0  0  0  0  0  0  0  0  0  8  0  0
    1.5789    1.5228    4.5402 H   0  0  0  0  0  0  0  0  0  9  0  0
   -0.8011    1.6924    8.2835 H   0  0  0  0  0  0  0  0  0 47  0  0
    0.1986    3.1537    8.3290 H   0  0  0  0  0  0  0  0  0 48  0  0
   -2.2221    3.7418    8.1654 H   0  0  0  0  0  0  0  0  0 49  0  0
   -2.3319    2.8783    6.6233 H   0  0  0  0  0  0  0  0  0 50  0  0
   -1.3152    4.3054    6.7518 H   0  0  0  0  0  0  0  0  0 51  0  0
  1  2  1  0
  2  3  1  0
  3  4  1  0
  4  5  4  0
  5  6  1  0
  5  7  4  0
  7  8  1  0
  7  9  4  0
  9 10  1  0
 10 11  1  0
 11 12  4  0
 12 13  1  0
 13 14  1  0
 13 15  1  0
 12 16  4  0
 16 17  1  0
 17 18  2  0
 17 19  1  0
 19 20  1  0
 20 21  4  0
 21 22  1  0
 21 23  4  0
 23 24  1  0
 24 25  1  0
 25 26  1  0
 25 27  1  0
 25 28  1  0
 23 29  4  0
 29 30  1  0
 29 31  4  0
 31 32  1  0
 32 33  1  0
 33 34  1  0
 33 35  1  0
 33 36  1  0
 31 37  4  0
 37 38  1  0
 19 39  1  0
 16 40  4  0
 40 41  4  0
 10 42  1  0
 10 43  1  0
  9 44  4  0
 44 45  1  0
 44 46  4  0
 46 47  1  0
  2 48  1  0
  2 49  1  0
  1 50  1  0
  1 51  1  0
  1 52  1  0
 46  4  4  0
 41 11  4  0
 37 20  4  0
M  END
>  <sample_id>  (262)
train::CCOc1ccc(Cn2nnc(C(=O)Nc3cc(OC)cc(OC)c3)c2N)cc1__gen0000

>  <partition>  (262)
BAT_EXTERNAL_CONFIRM

>  <method>  (262)
BA_seed193

>  <candidate>  (262)
primary

$$$$
train::CCOc1ccc(Cn2nnc(C(=O)Nc3cc(OC)cc(OC)c3)c2N)cc1__gen0001
     RDKit          3D

 52 54  0  0  0  0  0  0  0  0999 V2000
    7.2521    2.2845   -1.1162 C   0  0  0  0  0  0  0  0  0  0  0  0
    7.5698    2.1915    0.3765 C   0  0  0  0  0  0  0  0  0  1  0  0
    6.4056    2.2208    1.1832 O   0  0  0  0  0  0  0  0  0  2  0  0
    5.5999    1.1156    1.2642 C   0  0  0  0  0  0  0  0  0  3  0  0
    4.4153    1.2793    1.9696 C   0  0  0  0  0  0  0  0  0  4  0  0
    4.2012    2.2526    2.3843 H   0  0  0  0  0  0  0  0  0 46  0  0
    3.5386    0.2303    2.1331 C   0  0  0  0  0  0  0  0  0  5  0  0
    2.6287    0.3878    2.6977 H   0  0  0  0  0  0  0  0  0 45  0  0
    3.8259   -1.0216    1.6088 C   0  0  0  0  0  0  0  0  0  6  0  0
    2.8660   -2.1670    1.7713 C   0  0  0  0  0  0  0  0  0 11  0  0
    1.5843   -1.8715    1.1576 N   0  0  0  0  0  0  0  0  0 12  0  0
    0.4089   -1.5406    1.7409 C   0  0  0  0  0  0  0  0  0 13  0  0
    0.1207   -1.5570    3.0609 N   0  0  0  0  0  0  0  0  0 14  0  0
    0.8297   -1.2981    3.7302 H   0  0  0  0  0  0  0  0  0 15  0  0
   -0.8159   -1.2319    3.2506 H   0  0  0  0  0  0  0  0  0 16  0  0
   -0.4354   -1.2953    0.6574 C   0  0  0  0  0  0  0  0  0 17  0  0
   -1.8401   -0.9090    0.7622 C   0  0  0  0  0  0  0  0  0 20  0  0
   -2.3630   -0.7621    1.8587 O   0  0  0  0  0  0  0  0  0 21  0  0
   -2.4286   -0.7269   -0.4422 N   0  0  0  0  0  0  0  0  0 22  0  0
   -3.7265   -0.3547   -0.7680 C   0  0  0  0  0  0  0  0  0 23  0  0
   -4.0452   -0.2533   -2.1164 C   0  0  0  0  0  0  0  0  0 24  0  0
   -3.2956   -0.4642   -2.8573 H   0  0  0  0  0  0  0  0  0 41  0  0
   -5.3367    0.1138   -2.4909 C   0  0  0  0  0  0  0  0  0 25  0  0
   -5.7421    0.2516   -3.7762 O   0  0  0  0  0  0  0  0  0 36  0  0
   -4.8194    0.0211   -4.8182 C   0  0  0  0  0  0  0  0  0 37  0  0
   -3.9830    0.7246   -4.7620 H   0  0  0  0  0  0  0  0  0 38  0  0
   -4.4306   -1.0027   -4.7852 H   0  0  0  0  0  0  0  0  0 39  0  0
   -5.3790    0.1858   -5.7376 H   0  0  0  0  0  0  0  0  0 40  0  0
   -6.2989    0.3575   -1.5167 C   0  0  0  0  0  0  0  0  0 26  0  0
   -7.2814    0.6578   -1.8502 H   0  0  0  0  0  0  0  0  0 35  0  0
   -5.9733    0.2693   -0.1684 C   0  0  0  0  0  0  0  0  0 27  0  0
   -6.8434    0.5060    0.8484 O   0  0  0  0  0  0  0  0  0 30  0  0
   -8.1665    0.8699    0.5318 C   0  0  0  0  0  0  0  0  0 31  0  0
   -8.6693    1.0012    1.4910 H   0  0  0  0  0  0  0  0  0 32  0  0
   -8.1957    1.8194   -0.0192 H   0  0  0  0  0  0  0  0  0 33  0  0
   -8.6843    0.0940   -0.0461 H   0  0  0  0  0  0  0  0  0 34  0  0
   -4.6902   -0.1084    0.2056 C   0  0  0  0  0  0  0  0  0 28  0  0
   -4.4459   -0.1713    1.2549 H   0  0  0  0  0  0  0  0  0 29  0  0
   -1.8019   -0.8928   -1.2222 H   0  0  0  0  0  0  0  0  0 42  0  0
    0.2714   -1.4826   -0.4862 N   0  0  0  0  0  0  0  0  0 18  0  0
    1.4687   -1.8135   -0.1909 N   0  0  0  0  0  0  0  0  0 19  0  0
    2.6835   -2.3776    2.8303 H   0  0  0  0  0  0  0  0  0 43  0  0
    3.2587   -3.0612    1.2881 H   0  0  0  0  0  0  0  0  0 44  0  0
    5.0099   -1.1810    0.8939 C   0  0  0  0  0  0  0  0  0  7  0  0
    5.2348   -2.1420    0.4522 H   0  0  0  0  0  0  0  0  0 10  0  0
    5.8916   -0.1335    0.7204 C   0  0  0  0  0  0  0  0  0  8  0  0
    6.8009   -0.3174    0.1690 H   0  0  0  0  0  0  0  0  0  9  0  0
    8.1309    3.0666    0.6921 H   0  0  0  0  0  0  0  0  0 47  0  0
    8.1689    1.2960    0.6063 H   0  0  0  0  0  0  0  0  0 48  0  0
    6.6376    1.4508   -1.4323 H   0  0  0  0  0  0  0  0  0 49  0  0
    8.1762    2.2837   -1.6823 H   0  0  0  0  0  0  0  0  0 50  0  0
    6.7120    3.2061   -1.3065 H   0  0  0  0  0  0  0  0  0 51  0  0
  1  2  1  0
  2  3  1  0
  3  4  1  0
  4  5  4  0
  5  6  1  0
  5  7  4  0
  7  8  1  0
  7  9  4  0
  9 10  1  0
 10 11  1  0
 11 12  4  0
 12 13  1  0
 13 14  1  0
 13 15  1  0
 12 16  4  0
 16 17  1  0
 17 18  2  0
 17 19  1  0
 19 20  1  0
 20 21  4  0
 21 22  1  0
 21 23  4  0
 23 24  1  0
 24 25  1  0
 25 26  1  0
 25 27  1  0
 25 28  1  0
 23 29  4  0
 29 30  1  0
 29 31  4  0
 31 32  1  0
 32 33  1  0
 33 34  1  0
 33 35  1  0
 33 36  1  0
 31 37  4  0
 37 38  1  0
 19 39  1  0
 16 40  4  0
 40 41  4  0
 10 42  1  0
 10 43  1  0
  9 44  4  0
 44 45  1  0
 44 46  4  0
 46 47  1  0
  2 48  1  0
  2 49  1  0
  1 50  1  0
  1 51  1  0
  1 52  1  0
 46  4  4  0
 41 11  4  0
 37 20  4  0
M  END
>  <sample_id>  (263)
train::CCOc1ccc(Cn2nnc(C(=O)Nc3cc(OC)cc(OC)c3)c2N)cc1__gen0001

>  <partition>  (263)
BAT_EXTERNAL_CONFIRM

>  <method>  (263)
BA_seed193

>  <candidate>  (263)
primary

$$$$
train::CCOc1ccc(Cn2nnc(C(=O)Nc3cc(OC)cc(OC)c3)c2N)cc1__gen0002
     RDKit          3D

 52 54  0  0  0  0  0  0  0  0999 V2000
    4.8091   -1.7265    6.9652 C   0  0  0  0  0  0  0  0  0  0  0  0
    3.7628   -1.9479    5.8882 C   0  0  0  0  0  0  0  0  0  1  0  0
    2.5815   -1.2631    6.2938 O   0  0  0  0  0  0  0  0  0  2  0  0
    1.4778   -1.3077    5.5046 C   0  0  0  0  0  0  0  0  0  3  0  0
    1.3774   -1.9693    4.2851 C   0  0  0  0  0  0  0  0  0  4  0  0
    2.2103   -2.5093    3.8872 H   0  0  0  0  0  0  0  0  0 46  0  0
    0.2096   -1.9299    3.5710 C   0  0  0  0  0  0  0  0  0  5  0  0
    0.1548   -2.4500    2.6244 H   0  0  0  0  0  0  0  0  0 45  0  0
   -0.8975   -1.2286    4.0379 C   0  0  0  0  0  0  0  0  0  6  0  0
   -2.1776   -1.1806    3.2350 C   0  0  0  0  0  0  0  0  0 11  0  0
   -1.9619   -0.5997    1.9262 N   0  0  0  0  0  0  0  0  0 12  0  0
   -1.6593   -1.2158    0.7662 C   0  0  0  0  0  0  0  0  0 13  0  0
   -1.4681   -2.5223    0.5388 N   0  0  0  0  0  0  0  0  0 14  0  0
   -1.9272   -3.2137    1.1155 H   0  0  0  0  0  0  0  0  0 15  0  0
   -1.3450   -2.7249   -0.4432 H   0  0  0  0  0  0  0  0  0 16  0  0
   -1.5229   -0.1564   -0.1406 C   0  0  0  0  0  0  0  0  0 17  0  0
   -1.2445   -0.2851   -1.5745 C   0  0  0  0  0  0  0  0  0 20  0  0
   -1.1004   -1.3965   -2.0635 O   0  0  0  0  0  0  0  0  0 21  0  0
   -1.1706    0.9088   -2.1957 N   0  0  0  0  0  0  0  0  0 22  0  0
   -0.9345    1.1913   -3.5471 C   0  0  0  0  0  0  0  0  0 23  0  0
   -0.7449    0.2121   -4.5035 C   0  0  0  0  0  0  0  0  0 24  0  0
   -0.7973   -0.8264   -4.2397 H   0  0  0  0  0  0  0  0  0 41  0  0
   -0.5362    0.5585   -5.8234 C   0  0  0  0  0  0  0  0  0 25  0  0
   -0.3726   -0.4859   -6.6913 O   0  0  0  0  0  0  0  0  0 36  0  0
   -0.1254   -0.1970   -8.0508 C   0  0  0  0  0  0  0  0  0 37  0  0
   -0.9512    0.3586   -8.4969 H   0  0  0  0  0  0  0  0  0 38  0  0
    0.8033    0.3681   -8.1777 H   0  0  0  0  0  0  0  0  0 39  0  0
   -0.0324   -1.1611   -8.5478 H   0  0  0  0  0  0  0  0  0 40  0  0
   -0.4768    1.9019   -6.1917 C   0  0  0  0  0  0  0  0  0 26  0  0
   -0.2928    2.2200   -7.2110 H   0  0  0  0  0  0  0  0  0 35  0  0
   -0.6574    2.8887   -5.2245 C   0  0  0  0  0  0  0  0  0 27  0  0
   -0.5780    4.1672   -5.6883 O   0  0  0  0  0  0  0  0  0 30  0  0
   -0.7515    5.2204   -4.7830 C   0  0  0  0  0  0  0  0  0 31  0  0
   -1.7429    5.1998   -4.3064 H   0  0  0  0  0  0  0  0  0 32  0  0
   -0.6431    6.1400   -5.3591 H   0  0  0  0  0  0  0  0  0 33  0  0
   -0.0002    5.2101   -3.9903 H   0  0  0  0  0  0  0  0  0 34  0  0
   -0.8882    2.5401   -3.9058 C   0  0  0  0  0  0  0  0  0 28  0  0
   -1.0285    3.3003   -3.1506 H   0  0  0  0  0  0  0  0  0 29  0  0
   -1.3210    1.7039   -1.5857 H   0  0  0  0  0  0  0  0  0 42  0  0
   -1.7535    0.9942    0.5471 N   0  0  0  0  0  0  0  0  0 18  0  0
   -2.0084    0.7503    1.7400 N   0  0  0  0  0  0  0  0  0 19  0  0
   -2.9118   -0.5530    3.7484 H   0  0  0  0  0  0  0  0  0 43  0  0
   -2.5886   -2.1872    3.0999 H   0  0  0  0  0  0  0  0  0 44  0  0
   -0.7979   -0.5533    5.2457 C   0  0  0  0  0  0  0  0  0  7  0  0
   -1.6360    0.0159    5.6202 H   0  0  0  0  0  0  0  0  0 10  0  0
    0.3720   -0.6005    5.9796 C   0  0  0  0  0  0  0  0  0  8  0  0
    0.4517   -0.0714    6.9202 H   0  0  0  0  0  0  0  0  0  9  0  0
    4.0980   -1.5526    4.9284 H   0  0  0  0  0  0  0  0  0 47  0  0
    3.5330   -3.0140    5.7656 H   0  0  0  0  0  0  0  0  0 48  0  0
    4.4646   -2.1183    7.9072 H   0  0  0  0  0  0  0  0  0 49  0  0
    5.0077   -0.6671    7.0791 H   0  0  0  0  0  0  0  0  0 50  0  0
    5.7326   -2.2349    6.6717 H   0  0  0  0  0  0  0  0  0 51  0  0
  1  2  1  0
  2  3  1  0
  3  4  1  0
  4  5  4  0
  5  6  1  0
  5  7  4  0
  7  8  1  0
  7  9  4  0
  9 10  1  0
 10 11  1  0
 11 12  4  0
 12 13  1  0
 13 14  1  0
 13 15  1  0
 12 16  4  0
 16 17  1  0
 17 18  2  0
 17 19  1  0
 19 20  1  0
 20 21  4  0
 21 22  1  0
 21 23  4  0
 23 24  1  0
 24 25  1  0
 25 26  1  0
 25 27  1  0
 25 28  1  0
 23 29  4  0
 29 30  1  0
 29 31  4  0
 31 32  1  0
 32 33  1  0
 33 34  1  0
 33 35  1  0
 33 36  1  0
 31 37  4  0
 37 38  1  0
 19 39  1  0
 16 40  4  0
 40 41  4  0
 10 42  1  0
 10 43  1  0
  9 44  4  0
 44 45  1  0
 44 46  4  0
 46 47  1  0
  2 48  1  0
  2 49  1  0
  1 50  1  0
  1 51  1  0
  1 52  1  0
 46  4  4  0
 41 11  4  0
 37 20  4  0
M  END
>  <sample_id>  (264)
train::CCOc1ccc(Cn2nnc(C(=O)Nc3cc(OC)cc(OC)c3)c2N)cc1__gen0002

>  <partition>  (264)
BAT_EXTERNAL_CONFIRM

>  <method>  (264)
BA_seed193

>  <candidate>  (264)
primary

$$$$
train::COc1cccc(CNC(=O)CCC2CCCN(C(=O)c3cc4ccccc4o3)C2)c1__gen0000
     RDKit          3D

 59 62  0  0  0  0  0  0  0  0999 V2000
    2.3205    2.5529    1.7519 C   0  0  0  0  0  0  0  0  0  0  0  0
    1.8905    2.5954    0.7433 H   0  0  0  0  0  0  0  0  0  1  0  0
    1.6340    1.6320    2.5775 O   0  0  0  0  0  0  0  0  0  2  0  0
    1.6082    0.3211    2.2212 C   0  0  0  0  0  0  0  0  0  3  0  0
    2.2001   -0.1901    1.0669 C   0  0  0  0  0  0  0  0  0  4  0  0
    2.7640    0.4254    0.3938 H   0  0  0  0  0  0  0  0  0 56  0  0
    2.1024   -1.5477    0.7958 C   0  0  0  0  0  0  0  0  0  5  0  0
    2.7421   -2.0644   -0.4734 C   0  0  0  0  0  0  0  0  0 12  0  0
    2.2011   -1.3780   -1.6301 N   0  0  0  0  0  0  0  0  0 13  0  0
    2.8212   -0.3224   -2.2010 C   0  0  0  0  0  0  0  0  0 14  0  0
    3.9550    0.0246   -1.9332 O   0  0  0  0  0  0  0  0  0 15  0  0
    1.9093    0.4417   -3.1574 C   0  0  0  0  0  0  0  0  0 16  0  0
    1.2484   -0.2541   -3.6739 H   0  0  0  0  0  0  0  0  0 17  0  0
    2.5294    0.9721   -3.8757 H   0  0  0  0  0  0  0  0  0 18  0  0
    1.1088    1.4344   -2.3105 C   0  0  0  0  0  0  0  0  0 19  0  0
   -0.0971    2.0398   -3.0559 C   0  0  2  0  0  0  0  0  0 20  0  0
    0.2802    2.4469   -3.9987 H   0  0  0  0  0  0  0  0  0 50  0  0
   -0.7579    3.1657   -2.2556 C   0  0  0  0  0  0  0  0  0 21  0  0
   -0.0005    3.8937   -1.9547 H   0  0  0  0  0  0  0  0  0 22  0  0
   -1.4743    3.6757   -2.8980 H   0  0  0  0  0  0  0  0  0 49  0  0
   -1.4837    2.6584   -1.0090 C   0  0  0  0  0  0  0  0  0 23  0  0
   -2.0446    3.4651   -0.5421 H   0  0  0  0  0  0  0  0  0 24  0  0
   -0.7717    2.2737   -0.2897 H   0  0  0  0  0  0  0  0  0 25  0  0
   -2.4557    1.5365   -1.3960 C   0  0  0  0  0  0  0  0  0 26  0  0
   -3.2419    1.9230   -2.0611 H   0  0  0  0  0  0  0  0  0 47  0  0
   -2.9381    1.1023   -0.5186 H   0  0  0  0  0  0  0  0  0 48  0  0
   -1.7428    0.5111   -2.1172 N   0  0  0  0  0  0  0  0  0 27  0  0
   -1.2783   -0.6645   -1.6217 C   0  0  0  0  0  0  0  0  0 28  0  0
   -0.5722   -1.4022   -2.2939 O   0  0  0  0  0  0  0  0  0 29  0  0
   -1.6719   -1.0709   -0.2675 C   0  0  0  0  0  0  0  0  0 30  0  0
   -1.8147   -2.3445    0.1848 C   0  0  0  0  0  0  0  0  0 31  0  0
   -1.7570   -3.2412   -0.4108 H   0  0  0  0  0  0  0  0  0 43  0  0
   -2.1152   -2.2649    1.5733 C   0  0  0  0  0  0  0  0  0 32  0  0
   -2.3942   -3.1861    2.5906 C   0  0  0  0  0  0  0  0  0 33  0  0
   -2.4148   -4.2331    2.4012 H   0  0  0  0  0  0  0  0  0 42  0  0
   -2.6249   -2.6831    3.8561 C   0  0  0  0  0  0  0  0  0 34  0  0
   -2.8558   -3.3577    4.6694 H   0  0  0  0  0  0  0  0  0 41  0  0
   -2.6158   -1.3093    4.1235 C   0  0  0  0  0  0  0  0  0 35  0  0
   -2.7950   -0.9662    5.1305 H   0  0  0  0  0  0  0  0  0 40  0  0
   -2.3225   -0.3951    3.1355 C   0  0  0  0  0  0  0  0  0 36  0  0
   -2.3007    0.6622    3.3288 H   0  0  0  0  0  0  0  0  0 39  0  0
   -2.0753   -0.8794    1.8694 C   0  0  0  0  0  0  0  0  0 37  0  0
   -1.8088   -0.1716    0.7396 O   0  0  0  0  0  0  0  0  0 38  0  0
   -1.1811    1.0086   -3.3622 C   0  0  0  0  0  0  0  0  0 44  0  0
   -0.7944    0.1488   -3.9200 H   0  0  0  0  0  0  0  0  0 45  0  0
   -1.9784    1.4698   -3.9687 H   0  0  0  0  0  0  0  0  0 46  0  0
    0.7516    0.9347   -1.4137 H   0  0  0  0  0  0  0  0  0 51  0  0
    1.7653    2.2433   -1.9899 H   0  0  0  0  0  0  0  0  0 52  0  0
    1.2295   -1.5477   -1.8648 H   0  0  0  0  0  0  0  0  0 53  0  0
    2.5751   -3.1400   -0.5682 H   0  0  0  0  0  0  0  0  0 54  0  0
    3.8234   -1.8780   -0.4634 H   0  0  0  0  0  0  0  0  0 55  0  0
    1.4239   -2.3947    1.6540 C   0  0  0  0  0  0  0  0  0  6  0  0
    1.3498   -3.4446    1.4285 H   0  0  0  0  0  0  0  0  0 11  0  0
    0.8401   -1.8808    2.8034 C   0  0  0  0  0  0  0  0  0  7  0  0
    0.3199   -2.5312    3.4871 H   0  0  0  0  0  0  0  0  0 10  0  0
    0.9240   -0.5298    3.0784 C   0  0  0  0  0  0  0  0  0  8  0  0
    0.4862   -0.1095    3.9678 H   0  0  0  0  0  0  0  0  0  9  0  0
    2.1950    3.5191    2.2404 H   0  0  0  0  0  0  0  0  0 57  0  0
    3.3801    2.3050    1.6839 H   0  0  0  0  0  0  0  0  0 58  0  0
  1  2  1  0
  1  3  1  0
  3  4  1  0
  4  5  4  0
  5  6  1  0
  5  7  4  0
  7  8  1  0
  8  9  1  0
  9 10  1  0
 10 11  2  0
 10 12  1  0
 12 13  1  0
 12 14  1  0
 12 15  1  0
 15 16  1  0
 16 17  1  6
 16 18  1  0
 18 19  1  0
 18 20  1  0
 18 21  1  0
 21 22  1  0
 21 23  1  0
 21 24  1  0
 24 25  1  0
 24 26  1  0
 24 27  1  0
 27 28  1  0
 28 29  2  0
 28 30  1  0
 30 31  4  0
 31 32  1  0
 31 33  4  0
 33 34  4  0
 34 35  1  0
 34 36  4  0
 36 37  1  0
 36 38  4  0
 38 39  1  0
 38 40  4  0
 40 41  1  0
 40 42  4  0
 42 43  4  0
 27 44  1  0
 44 45  1  0
 44 46  1  0
 15 47  1  0
 15 48  1  0
  9 49  1  0
  8 50  1  0
  8 51  1  0
  7 52  4  0
 52 53  1  0
 52 54  4  0
 54 55  1  0
 54 56  4  0
 56 57  1  0
  1 58  1  0
  1 59  1  0
 56  4  4  0
 44 16  1  0
 43 30  4  0
 42 33  4  0
M  END
>  <sample_id>  (265)
train::COc1cccc(CNC(=O)CCC2CCCN(C(=O)c3cc4ccccc4o3)C2)c1__gen0000

>  <partition>  (265)
BAT_EXTERNAL_CONFIRM

>  <method>  (265)
BA_seed193

>  <candidate>  (265)
primary

$$$$
train::COc1cccc(CNC(=O)CCC2CCCN(C(=O)c3cc4ccccc4o3)C2)c1__gen0001
     RDKit          3D

 59 62  0  0  0  0  0  0  0  0999 V2000
   -1.6729    0.7431    3.4184 C   0  0  0  0  0  0  0  0  0  0  0  0
   -2.4689    1.3665    3.8217 H   0  0  0  0  0  0  0  0  0  1  0  0
   -0.4665    1.4584    3.6197 O   0  0  0  0  0  0  0  0  0  2  0  0
    0.7035    0.8962    3.2671 C   0  0  0  0  0  0  0  0  0  3  0  0
    0.8436   -0.3551    2.6609 C   0  0  0  0  0  0  0  0  0  4  0  0
   -0.0294   -0.9431    2.3983 H   0  0  0  0  0  0  0  0  0 56  0  0
    2.1003   -0.8773    2.4013 C   0  0  0  0  0  0  0  0  0  5  0  0
    2.2374   -2.1918    1.6746 C   0  0  0  0  0  0  0  0  0 12  0  0
    2.5242   -1.9391    0.2918 N   0  0  0  0  0  0  0  0  0 13  0  0
    3.2774   -2.7501   -0.4585 C   0  0  0  0  0  0  0  0  0 14  0  0
    3.7636   -3.7789   -0.0458 O   0  0  0  0  0  0  0  0  0 15  0  0
    3.4877   -2.2874   -1.9058 C   0  0  0  0  0  0  0  0  0 16  0  0
    4.3958   -2.7635   -2.2590 H   0  0  0  0  0  0  0  0  0 17  0  0
    3.6343   -1.2036   -1.9259 H   0  0  0  0  0  0  0  0  0 18  0  0
    2.3179   -2.6834   -2.8230 C   0  0  0  0  0  0  0  0  0 19  0  0
    1.0237   -1.9234   -2.5055 C   0  0  2  0  0  0  0  0  0 20  0  0
    0.7648   -2.1389   -1.4664 H   0  0  0  0  0  0  0  0  0 50  0  0
   -0.1431   -2.3508   -3.4021 C   0  0  0  0  0  0  0  0  0 21  0  0
    0.1109   -2.1490   -4.4382 H   0  0  0  0  0  0  0  0  0 22  0  0
   -0.3291   -3.4187   -3.2809 H   0  0  0  0  0  0  0  0  0 49  0  0
   -1.4010   -1.5665   -3.0268 C   0  0  0  0  0  0  0  0  0 23  0  0
   -2.2148   -1.7997   -3.6995 H   0  0  0  0  0  0  0  0  0 24  0  0
   -1.7047   -1.8439   -2.0111 H   0  0  0  0  0  0  0  0  0 25  0  0
   -1.1236   -0.0581   -3.0607 C   0  0  0  0  0  0  0  0  0 26  0  0
   -0.8798    0.2479   -4.0806 H   0  0  0  0  0  0  0  0  0 47  0  0
   -2.0017    0.5118   -2.7455 H   0  0  0  0  0  0  0  0  0 48  0  0
   -0.0050    0.2562   -2.2011 N   0  0  0  0  0  0  0  0  0 27  0  0
   -0.0318    0.7286   -0.9544 C   0  0  0  0  0  0  0  0  0 28  0  0
    0.9480    0.6535   -0.2192 O   0  0  0  0  0  0  0  0  0 29  0  0
   -1.2225    1.4349   -0.4477 C   0  0  0  0  0  0  0  0  0 30  0  0
   -1.1966    2.4381    0.4765 C   0  0  0  0  0  0  0  0  0 31  0  0
   -0.3214    2.8587    0.9529 H   0  0  0  0  0  0  0  0  0 43  0  0
   -2.5353    2.8412    0.6982 C   0  0  0  0  0  0  0  0  0 32  0  0
   -3.1923    3.8001    1.4818 C   0  0  0  0  0  0  0  0  0 33  0  0
   -2.6212    4.4804    2.1117 H   0  0  0  0  0  0  0  0  0 42  0  0
   -4.5652    3.8642    1.4254 C   0  0  0  0  0  0  0  0  0 34  0  0
   -5.0795    4.5918    2.0186 H   0  0  0  0  0  0  0  0  0 41  0  0
   -5.2997    2.9969    0.6182 C   0  0  0  0  0  0  0  0  0 35  0  0
   -6.3708    3.0688    0.6044 H   0  0  0  0  0  0  0  0  0 40  0  0
   -4.6879    2.0403   -0.1652 C   0  0  0  0  0  0  0  0  0 36  0  0
   -5.2492    1.3791   -0.7927 H   0  0  0  0  0  0  0  0  0 39  0  0
   -3.2997    1.9872   -0.1326 C   0  0  0  0  0  0  0  0  0 37  0  0
   -2.4953    1.1383   -0.8042 O   0  0  0  0  0  0  0  0  0 38  0  0
    1.2048   -0.4004   -2.6566 C   0  0  0  0  0  0  0  0  0 44  0  0
    2.0279   -0.0323   -2.0364 H   0  0  0  0  0  0  0  0  0 45  0  0
    1.3916   -0.1448   -3.7069 H   0  0  0  0  0  0  0  0  0 46  0  0
    2.1517   -3.7497   -2.6845 H   0  0  0  0  0  0  0  0  0 51  0  0
    2.5925   -2.5014   -3.8505 H   0  0  0  0  0  0  0  0  0 52  0  0
    2.1469   -1.0620   -0.0545 H   0  0  0  0  0  0  0  0  0 53  0  0
    1.2941   -2.7595    1.7699 H   0  0  0  0  0  0  0  0  0 54  0  0
    3.0635   -2.7761    2.0839 H   0  0  0  0  0  0  0  0  0 55  0  0
    3.2221   -0.1323    2.7148 C   0  0  0  0  0  0  0  0  0  6  0  0
    4.2111   -0.5294    2.5130 H   0  0  0  0  0  0  0  0  0 11  0  0
    3.0974    1.1168    3.3029 C   0  0  0  0  0  0  0  0  0  7  0  0
    3.9835    1.6774    3.5657 H   0  0  0  0  0  0  0  0  0 10  0  0
    1.8495    1.6181    3.5825 C   0  0  0  0  0  0  0  0  0  8  0  0
    1.7276    2.5819    4.0570 H   0  0  0  0  0  0  0  0  0  9  0  0
   -1.6349   -0.2248    3.9430 H   0  0  0  0  0  0  0  0  0 57  0  0
   -1.8537    0.5588    2.3676 H   0  0  0  0  0  0  0  0  0 58  0  0
  1  2  1  0
  1  3  1  0
  3  4  1  0
  4  5  4  0
  5  6  1  0
  5  7  4  0
  7  8  1  0
  8  9  1  0
  9 10  1  0
 10 11  2  0
 10 12  1  0
 12 13  1  0
 12 14  1  0
 12 15  1  0
 15 16  1  0
 16 17  1  1
 16 18  1  0
 18 19  1  0
 18 20  1  0
 18 21  1  0
 21 22  1  0
 21 23  1  0
 21 24  1  0
 24 25  1  0
 24 26  1  0
 24 27  1  0
 27 28  1  0
 28 29  2  0
 28 30  1  0
 30 31  4  0
 31 32  1  0
 31 33  4  0
 33 34  4  0
 34 35  1  0
 34 36  4  0
 36 37  1  0
 36 38  4  0
 38 39  1  0
 38 40  4  0
 40 41  1  0
 40 42  4  0
 42 43  4  0
 27 44  1  0
 44 45  1  0
 44 46  1  0
 15 47  1  0
 15 48  1  0
  9 49  1  0
  8 50  1  0
  8 51  1  0
  7 52  4  0
 52 53  1  0
 52 54  4  0
 54 55  1  0
 54 56  4  0
 56 57  1  0
  1 58  1  0
  1 59  1  0
 56  4  4  0
 44 16  1  0
 43 30  4  0
 42 33  4  0
M  END
>  <sample_id>  (266)
train::COc1cccc(CNC(=O)CCC2CCCN(C(=O)c3cc4ccccc4o3)C2)c1__gen0001

>  <partition>  (266)
BAT_EXTERNAL_CONFIRM

>  <method>  (266)
BA_seed193

>  <candidate>  (266)
primary

$$$$
train::COc1cccc(CNC(=O)CCC2CCCN(C(=O)c3cc4ccccc4o3)C2)c1__gen0002
     RDKit          3D

 59 62  0  0  0  0  0  0  0  0999 V2000
    2.5970   -0.0586   -2.9086 C   0  0  0  0  0  0  0  0  0  0  0  0
    1.5075   -0.1834   -3.0440 H   0  0  0  0  0  0  0  0  0  1  0  0
    2.8898    0.5552   -1.6743 O   0  0  0  0  0  0  0  0  0  2  0  0
    2.6283   -0.1211   -0.5261 C   0  0  0  0  0  0  0  0  0  3  0  0
    1.9786   -1.3379   -0.4657 C   0  0  0  0  0  0  0  0  0  4  0  0
    1.6606   -1.8447   -1.3643 H   0  0  0  0  0  0  0  0  0 56  0  0
    1.7531   -1.9517    0.7511 C   0  0  0  0  0  0  0  0  0  5  0  0
    1.0969   -3.2970    0.8267 C   0  0  0  0  0  0  0  0  0 12  0  0
   -0.2669   -3.2178    1.2770 N   0  0  0  0  0  0  0  0  0 13  0  0
   -1.3176   -3.6139    0.5443 C   0  0  0  0  0  0  0  0  0 14  0  0
   -1.1834   -4.1369   -0.5559 O   0  0  0  0  0  0  0  0  0 15  0  0
   -2.6579   -3.3372    1.1885 C   0  0  0  0  0  0  0  0  0 16  0  0
   -3.4370   -3.7977    0.5692 H   0  0  0  0  0  0  0  0  0 17  0  0
   -2.6610   -3.7939    2.1690 H   0  0  0  0  0  0  0  0  0 18  0  0
   -2.9139   -1.8226    1.3254 C   0  0  0  0  0  0  0  0  0 19  0  0
   -3.7133   -1.1852    0.1846 C   0  0  2  0  0  0  0  0  0 20  0  0
   -4.7316   -1.5815    0.2578 H   0  0  0  0  0  0  0  0  0 50  0  0
   -3.1993   -1.5385   -1.2175 C   0  0  0  0  0  0  0  0  0 21  0  0
   -3.0994   -2.6125   -1.3213 H   0  0  0  0  0  0  0  0  0 22  0  0
   -3.9511   -1.2196   -1.9512 H   0  0  0  0  0  0  0  0  0 49  0  0
   -1.8932   -0.8440   -1.5628 C   0  0  0  0  0  0  0  0  0 23  0  0
   -1.0887   -1.1969   -0.9031 H   0  0  0  0  0  0  0  0  0 24  0  0
   -1.5929   -1.0394   -2.5902 H   0  0  0  0  0  0  0  0  0 25  0  0
   -2.0933    0.6895   -1.3580 C   0  0  0  0  0  0  0  0  0 26  0  0
   -2.9002    1.0259   -1.9893 H   0  0  0  0  0  0  0  0  0 47  0  0
   -1.1993    1.2223   -1.6265 H   0  0  0  0  0  0  0  0  0 48  0  0
   -2.4380    0.9119    0.0220 N   0  0  0  0  0  0  0  0  0 27  0  0
   -1.6133    1.3337    0.9892 C   0  0  0  0  0  0  0  0  0 28  0  0
   -1.8587    1.1685    2.1793 O   0  0  0  0  0  0  0  0  0 29  0  0
   -0.3654    2.0538    0.6441 C   0  0  0  0  0  0  0  0  0 30  0  0
    0.4058    2.7490    1.5103 C   0  0  0  0  0  0  0  0  0 31  0  0
    0.2392    2.8347    2.5697 H   0  0  0  0  0  0  0  0  0 43  0  0
    1.4368    3.3626    0.7702 C   0  0  0  0  0  0  0  0  0 32  0  0
    2.5222    4.2020    1.0504 C   0  0  0  0  0  0  0  0  0 33  0  0
    2.7113    4.5210    2.0552 H   0  0  0  0  0  0  0  0  0 42  0  0
    3.3274    4.5713    0.0031 C   0  0  0  0  0  0  0  0  0 34  0  0
    4.1585    5.2313    0.2079 H   0  0  0  0  0  0  0  0  0 41  0  0
    3.0928    4.1559   -1.3113 C   0  0  0  0  0  0  0  0  0 35  0  0
    3.7452    4.4864   -2.0999 H   0  0  0  0  0  0  0  0  0 40  0  0
    2.0330    3.3396   -1.6272 C   0  0  0  0  0  0  0  0  0 36  0  0
    1.8292    3.0099   -2.6252 H   0  0  0  0  0  0  0  0  0 39  0  0
    1.2156    2.9535   -0.5592 C   0  0  0  0  0  0  0  0  0 37  0  0
    0.1298    2.1566   -0.6316 O   0  0  0  0  0  0  0  0  0 38  0  0
   -3.7345    0.3353    0.3745 C   0  0  0  0  0  0  0  0  0 44  0  0
   -4.4951    0.7799   -0.2554 H   0  0  0  0  0  0  0  0  0 45  0  0
   -3.9213    0.6048    1.4240 H   0  0  0  0  0  0  0  0  0 46  0  0
   -3.4572   -1.6303    2.2485 H   0  0  0  0  0  0  0  0  0 51  0  0
   -1.9549   -1.3087    1.4529 H   0  0  0  0  0  0  0  0  0 52  0  0
   -0.4380   -2.7239    2.1411 H   0  0  0  0  0  0  0  0  0 53  0  0
    1.6681   -3.9359    1.5328 H   0  0  0  0  0  0  0  0  0 54  0  0
    1.0794   -3.7910   -0.1484 H   0  0  0  0  0  0  0  0  0 55  0  0
    2.1222   -1.3060    1.9251 C   0  0  0  0  0  0  0  0  0  6  0  0
    1.9140   -1.7596    2.8906 H   0  0  0  0  0  0  0  0  0 11  0  0
    2.7471   -0.0699    1.8687 C   0  0  0  0  0  0  0  0  0  7  0  0
    3.0487    0.4252    2.7877 H   0  0  0  0  0  0  0  0  0 10  0  0
    3.0425    0.5069    0.6527 C   0  0  0  0  0  0  0  0  0  8  0  0
    3.5519    1.4467    0.6021 H   0  0  0  0  0  0  0  0  0  9  0  0
    3.0877   -1.0033   -3.0066 H   0  0  0  0  0  0  0  0  0 57  0  0
    2.9561    0.6270   -3.6723 H   0  0  0  0  0  0  0  0  0 58  0  0
  1  2  1  0
  1  3  1  0
  3  4  1  0
  4  5  4  0
  5  6  1  0
  5  7  4  0
  7  8  1  0
  8  9  1  0
  9 10  1  0
 10 11  2  0
 10 12  1  0
 12 13  1  0
 12 14  1  0
 12 15  1  0
 15 16  1  0
 16 17  1  6
 16 18  1  0
 18 19  1  0
 18 20  1  0
 18 21  1  0
 21 22  1  0
 21 23  1  0
 21 24  1  0
 24 25  1  0
 24 26  1  0
 24 27  1  0
 27 28  1  0
 28 29  2  0
 28 30  1  0
 30 31  4  0
 31 32  1  0
 31 33  4  0
 33 34  4  0
 34 35  1  0
 34 36  4  0
 36 37  1  0
 36 38  4  0
 38 39  1  0
 38 40  4  0
 40 41  1  0
 40 42  4  0
 42 43  4  0
 27 44  1  0
 44 45  1  0
 44 46  1  0
 15 47  1  0
 15 48  1  0
  9 49  1  0
  8 50  1  0
  8 51  1  0
  7 52  4  0
 52 53  1  0
 52 54  4  0
 54 55  1  0
 54 56  4  0
 56 57  1  0
  1 58  1  0
  1 59  1  0
 56  4  4  0
 44 16  1  0
 43 30  4  0
 42 33  4  0
M  END
>  <sample_id>  (267)
train::COc1cccc(CNC(=O)CCC2CCCN(C(=O)c3cc4ccccc4o3)C2)c1__gen0002

>  <partition>  (267)
BAT_EXTERNAL_CONFIRM

>  <method>  (267)
BA_seed193

>  <candidate>  (267)
primary

$$$$
train::Cc1ccc(Cl)cc1N1CCN(C(=O)Cn2ncn3cccc3c2=O)CC1__gen0000
     RDKit          3D

 47 50  0  0  0  0  0  0  0  0999 V2000
    3.0713    1.4334    4.0276 C   0  0  0  0  0  0  0  0  0  0  0  0
    1.5905    1.3394    3.7887 C   0  0  0  0  0  0  0  0  0  1  0  0
    0.7306    1.8708    4.7138 C   0  0  0  0  0  0  0  0  0  2  0  0
    1.1470    2.3760    5.5785 H   0  0  0  0  0  0  0  0  0 43  0  0
   -0.6418    1.7762    4.5985 C   0  0  0  0  0  0  0  0  0  3  0  0
   -1.3071    2.1957    5.3398 H   0  0  0  0  0  0  0  0  0 42  0  0
   -1.1586    1.0770    3.5189 C   0  0  0  0  0  0  0  0  0  4  0  0
   -2.8515    0.9109    3.3244 Cl  0  0  0  0  0  0  0  0  0 41  0  0
   -0.3179    0.5452    2.5641 C   0  0  0  0  0  0  0  0  0  5  0  0
   -0.7664    0.0276    1.7169 H   0  0  0  0  0  0  0  0  0 40  0  0
    1.0575    0.7077    2.6521 C   0  0  0  0  0  0  0  0  0  6  0  0
    1.9354    0.1643    1.7004 N   0  0  0  0  0  0  0  0  0  7  0  0
    1.5249   -0.9676    0.9122 C   0  0  0  0  0  0  0  0  0  8  0  0
    2.3905   -1.6451    0.8415 H   0  0  0  0  0  0  0  0  0  9  0  0
    0.7377   -1.5044    1.4257 H   0  0  0  0  0  0  0  0  0 39  0  0
    1.0901   -0.5737   -0.5114 C   0  0  0  0  0  0  0  0  0 10  0  0
    1.9599   -0.6119   -1.1906 H   0  0  0  0  0  0  0  0  0 37  0  0
    0.3432   -1.2499   -0.8736 H   0  0  0  0  0  0  0  0  0 38  0  0
    0.6689    0.8058   -0.5112 N   0  0  0  0  0  0  0  0  0 11  0  0
   -0.5810    1.3232   -0.5907 C   0  0  0  0  0  0  0  0  0 12  0  0
   -0.7894    2.5047   -0.5468 O   0  0  0  0  0  0  0  0  0 13  0  0
   -1.7636    0.3571   -0.7574 C   0  0  0  0  0  0  0  0  0 14  0  0
   -1.8428   -0.3594   -1.9961 N   0  0  0  0  0  0  0  0  0 15  0  0
   -2.0856    0.4060   -3.0713 N   0  0  0  0  0  0  0  0  0 16  0  0
   -2.2114   -0.1346   -4.2003 C   0  0  0  0  0  0  0  0  0 17  0  0
   -2.3940    0.4932   -5.0630 H   0  0  0  0  0  0  0  0  0 28  0  0
   -2.1447   -1.5064   -4.3903 N   0  0  0  0  0  0  0  0  0 18  0  0
   -2.2803   -2.2710   -5.5201 C   0  0  0  0  0  0  0  0  0 19  0  0
   -2.4606   -1.8183   -6.4628 H   0  0  0  0  0  0  0  0  0 27  0  0
   -2.1467   -3.5673   -5.1656 C   0  0  0  0  0  0  0  0  0 20  0  0
   -2.1910   -4.4225   -5.8216 H   0  0  0  0  0  0  0  0  0 26  0  0
   -1.9005   -3.6269   -3.7629 C   0  0  0  0  0  0  0  0  0 21  0  0
   -1.7508   -4.4924   -3.1631 H   0  0  0  0  0  0  0  0  0 25  0  0
   -1.9157   -2.3371   -3.3205 C   0  0  0  0  0  0  0  0  0 22  0  0
   -1.7220   -1.7228   -2.0040 C   0  0  0  0  0  0  0  0  0 23  0  0
   -1.5187   -2.3649   -0.9743 O   0  0  0  0  0  0  0  0  0 24  0  0
   -2.6504    1.0070   -0.7103 H   0  0  0  0  0  0  0  0  0 29  0  0
   -1.8115   -0.3648    0.0617 H   0  0  0  0  0  0  0  0  0 30  0  0
    1.7637    1.7206   -0.2200 C   0  0  0  0  0  0  0  0  0 31  0  0
    1.3002    2.6494    0.1327 H   0  0  0  0  0  0  0  0  0 35  0  0
    2.3254    1.9284   -1.1132 H   0  0  0  0  0  0  0  0  0 36  0  0
    2.6618    1.0877    0.8851 C   0  0  0  0  0  0  0  0  0 32  0  0
    3.4955    0.5533    0.4187 H   0  0  0  0  0  0  0  0  0 33  0  0
    3.0684    1.9016    1.4903 H   0  0  0  0  0  0  0  0  0 34  0  0
    3.4451    2.4141    3.7384 H   0  0  0  0  0  0  0  0  0 44  0  0
    3.6032    0.6852    3.4376 H   0  0  0  0  0  0  0  0  0 45  0  0
    3.2930    1.2795    5.0736 H   0  0  0  0  0  0  0  0  0 46  0  0
  1  2  1  0
  2  3  4  0
  3  4  1  0
  3  5  4  0
  5  6  1  0
  5  7  4  0
  7  8  1  0
  7  9  4  0
  9 10  1  0
  9 11  4  0
 11 12  1  0
 12 13  1  0
 13 14  1  0
 13 15  1  0
 13 16  1  0
 16 17  1  0
 16 18  1  0
 16 19  1  0
 19 20  1  0
 20 21  2  0
 20 22  1  0
 22 23  1  0
 23 24  4  0
 24 25  4  0
 25 26  1  0
 25 27  4  0
 27 28  4  0
 28 29  1  0
 28 30  4  0
 30 31  1  0
 30 32  4  0
 32 33  1  0
 32 34  4  0
 34 35  4  0
 35 36  2  0
 22 37  1  0
 22 38  1  0
 19 39  1  0
 39 40  1  0
 39 41  1  0
 39 42  1  0
 42 43  1  0
 42 44  1  0
  1 45  1  0
  1 46  1  0
  1 47  1  0
 11  2  4  0
 42 12  1  0
 35 23  4  0
 34 27  4  0
M  END
>  <sample_id>  (268)
train::Cc1ccc(Cl)cc1N1CCN(C(=O)Cn2ncn3cccc3c2=O)CC1__gen0000

>  <partition>  (268)
BAT_EXTERNAL_CONFIRM

>  <method>  (268)
BA_seed193

>  <candidate>  (268)
primary

$$$$
train::Cc1ccc(Cl)cc1N1CCN(C(=O)Cn2ncn3cccc3c2=O)CC1__gen0001
     RDKit          3D

 47 50  0  0  0  0  0  0  0  0999 V2000
   -4.9059   -0.4702   -2.0874 C   0  0  0  0  0  0  0  0  0  0  0  0
   -4.0222   -1.6051   -1.6491 C   0  0  0  0  0  0  0  0  0  1  0  0
   -4.5355   -2.8936   -1.6365 C   0  0  0  0  0  0  0  0  0  2  0  0
   -5.5916   -3.0402   -1.8805 H   0  0  0  0  0  0  0  0  0 43  0  0
   -3.7710   -3.9987   -1.3318 C   0  0  0  0  0  0  0  0  0  3  0  0
   -4.2080   -4.9869   -1.3148 H   0  0  0  0  0  0  0  0  0 42  0  0
   -2.4283   -3.7870   -1.0612 C   0  0  0  0  0  0  0  0  0  4  0  0
   -1.4162   -5.1417   -0.7288 Cl  0  0  0  0  0  0  0  0  0 41  0  0
   -1.8850   -2.5142   -1.0470 C   0  0  0  0  0  0  0  0  0  5  0  0
   -0.8223   -2.4247   -0.8368 H   0  0  0  0  0  0  0  0  0 40  0  0
   -2.6811   -1.4039   -1.3047 C   0  0  0  0  0  0  0  0  0  6  0  0
   -2.1685   -0.1118   -1.3115 N   0  0  0  0  0  0  0  0  0  7  0  0
   -0.7636    0.1329   -1.6089 C   0  0  0  0  0  0  0  0  0  8  0  0
   -0.3963   -0.6291   -2.2827 H   0  0  0  0  0  0  0  0  0  9  0  0
   -0.6868    1.1100   -2.0959 H   0  0  0  0  0  0  0  0  0 39  0  0
    0.1149    0.1811   -0.3464 C   0  0  0  0  0  0  0  0  0 10  0  0
    0.1337   -0.7900    0.1494 H   0  0  0  0  0  0  0  0  0 37  0  0
    1.1406    0.4159   -0.6443 H   0  0  0  0  0  0  0  0  0 38  0  0
   -0.4134    1.1628    0.5771 N   0  0  0  0  0  0  0  0  0 11  0  0
    0.0882    2.3725    0.8996 C   0  0  0  0  0  0  0  0  0 12  0  0
   -0.5267    3.1520    1.5879 O   0  0  0  0  0  0  0  0  0 13  0  0
    1.4825    2.7549    0.3789 C   0  0  0  0  0  0  0  0  0 14  0  0
    2.5614    2.0365    1.0227 N   0  0  0  0  0  0  0  0  0 15  0  0
    2.7419    2.2965    2.3047 N   0  0  0  0  0  0  0  0  0 16  0  0
    3.7112    1.8014    2.9504 C   0  0  0  0  0  0  0  0  0 17  0  0
    3.8305    2.0233    3.9930 H   0  0  0  0  0  0  0  0  0 28  0  0
    4.6414    0.9851    2.3325 N   0  0  0  0  0  0  0  0  0 18  0  0
    5.7676    0.3801    2.8048 C   0  0  0  0  0  0  0  0  0 19  0  0
    6.0713    0.4934    3.8316 H   0  0  0  0  0  0  0  0  0 27  0  0
    6.3544   -0.2980    1.7715 C   0  0  0  0  0  0  0  0  0 20  0  0
    7.2627   -0.8758    1.8385 H   0  0  0  0  0  0  0  0  0 26  0  0
    5.5628   -0.1291    0.6323 C   0  0  0  0  0  0  0  0  0 21  0  0
    5.7318   -0.5190   -0.3492 H   0  0  0  0  0  0  0  0  0 25  0  0
    4.5056    0.6782    0.9989 C   0  0  0  0  0  0  0  0  0 22  0  0
    3.3789    1.2140    0.2488 C   0  0  0  0  0  0  0  0  0 23  0  0
    3.1284    0.9725   -0.9138 O   0  0  0  0  0  0  0  0  0 24  0  0
    1.5994    3.8140    0.6206 H   0  0  0  0  0  0  0  0  0 29  0  0
    1.5576    2.5928   -0.7010 H   0  0  0  0  0  0  0  0  0 30  0  0
   -1.7815    0.8500    0.9254 C   0  0  0  0  0  0  0  0  0 31  0  0
   -2.1398    1.6192    1.6123 H   0  0  0  0  0  0  0  0  0 35  0  0
   -1.8130   -0.1271    1.4134 H   0  0  0  0  0  0  0  0  0 36  0  0
   -2.6611    0.8416   -0.3434 C   0  0  0  0  0  0  0  0  0 32  0  0
   -3.6763    0.5952   -0.0638 H   0  0  0  0  0  0  0  0  0 33  0  0
   -2.6382    1.8342   -0.7942 H   0  0  0  0  0  0  0  0  0 34  0  0
   -5.5868   -0.8063   -2.8657 H   0  0  0  0  0  0  0  0  0 44  0  0
   -4.3180    0.3611   -2.4424 H   0  0  0  0  0  0  0  0  0 45  0  0
   -5.5297   -0.1190   -1.2526 H   0  0  0  0  0  0  0  0  0 46  0  0
  1  2  1  0
  2  3  4  0
  3  4  1  0
  3  5  4  0
  5  6  1  0
  5  7  4  0
  7  8  1  0
  7  9  4  0
  9 10  1  0
  9 11  4  0
 11 12  1  0
 12 13  1  0
 13 14  1  0
 13 15  1  0
 13 16  1  0
 16 17  1  0
 16 18  1  0
 16 19  1  0
 19 20  1  0
 20 21  2  0
 20 22  1  0
 22 23  1  0
 23 24  4  0
 24 25  4  0
 25 26  1  0
 25 27  4  0
 27 28  4  0
 28 29  1  0
 28 30  4  0
 30 31  1  0
 30 32  4  0
 32 33  1  0
 32 34  4  0
 34 35  4  0
 35 36  2  0
 22 37  1  0
 22 38  1  0
 19 39  1  0
 39 40  1  0
 39 41  1  0
 39 42  1  0
 42 43  1  0
 42 44  1  0
  1 45  1  0
  1 46  1  0
  1 47  1  0
 11  2  4  0
 42 12  1  0
 35 23  4  0
 34 27  4  0
M  END
>  <sample_id>  (269)
train::Cc1ccc(Cl)cc1N1CCN(C(=O)Cn2ncn3cccc3c2=O)CC1__gen0001

>  <partition>  (269)
BAT_EXTERNAL_CONFIRM

>  <method>  (269)
BA_seed193

>  <candidate>  (269)
primary

$$$$
train::Cc1ccc(Cl)cc1N1CCN(C(=O)Cn2ncn3cccc3c2=O)CC1__gen0002
     RDKit          3D

 47 50  0  0  0  0  0  0  0  0999 V2000
   -1.5392   -2.5301   -2.9445 C   0  0  0  0  0  0  0  0  0  0  0  0
   -0.9736   -1.2473   -3.4700 C   0  0  0  0  0  0  0  0  0  1  0  0
   -0.8400   -1.0774   -4.8387 C   0  0  0  0  0  0  0  0  0  2  0  0
   -1.1844   -1.8623   -5.4935 H   0  0  0  0  0  0  0  0  0 43  0  0
   -0.2838    0.0658   -5.3881 C   0  0  0  0  0  0  0  0  0  3  0  0
   -0.1847    0.1736   -6.4556 H   0  0  0  0  0  0  0  0  0 42  0  0
    0.1699    1.0498   -4.5299 C   0  0  0  0  0  0  0  0  0  4  0  0
    0.9036    2.4768   -5.1759 Cl  0  0  0  0  0  0  0  0  0 41  0  0
    0.0401    0.9144   -3.1570 C   0  0  0  0  0  0  0  0  0  5  0  0
    0.3807    1.7240   -2.5333 H   0  0  0  0  0  0  0  0  0 40  0  0
   -0.5662   -0.2196   -2.6030 C   0  0  0  0  0  0  0  0  0  6  0  0
   -0.6812   -0.3777   -1.2250 N   0  0  0  0  0  0  0  0  0  7  0  0
    0.1970    0.3589   -0.3305 C   0  0  0  0  0  0  0  0  0  8  0  0
    0.4294   -0.3064    0.5194 H   0  0  0  0  0  0  0  0  0  9  0  0
    1.1334    0.5855   -0.8324 H   0  0  0  0  0  0  0  0  0 39  0  0
   -0.4602    1.6386    0.2165 C   0  0  0  0  0  0  0  0  0 10  0  0
    0.2271    2.1350    0.8998 H   0  0  0  0  0  0  0  0  0 37  0  0
   -0.6519    2.3326   -0.6081 H   0  0  0  0  0  0  0  0  0 38  0  0
   -1.7112    1.2877    0.8310 N   0  0  0  0  0  0  0  0  0 11  0  0
   -2.0120    1.2512    2.1509 C   0  0  0  0  0  0  0  0  0 12  0  0
   -3.0973    0.9160    2.5710 O   0  0  0  0  0  0  0  0  0 13  0  0
   -0.9102    1.6869    3.1474 C   0  0  0  0  0  0  0  0  0 14  0  0
    0.2065    0.7797    3.1395 N   0  0  0  0  0  0  0  0  0 15  0  0
   -0.0582   -0.4943    3.4358 N   0  0  0  0  0  0  0  0  0 16  0  0
    0.8408   -1.3738    3.4838 C   0  0  0  0  0  0  0  0  0 17  0  0
    0.5870   -2.3886    3.7279 H   0  0  0  0  0  0  0  0  0 28  0  0
    2.1629   -1.0550    3.2357 N   0  0  0  0  0  0  0  0  0 18  0  0
    3.2970   -1.8212    3.2459 C   0  0  0  0  0  0  0  0  0 19  0  0
    3.2613   -2.8677    3.4854 H   0  0  0  0  0  0  0  0  0 27  0  0
    4.3542   -1.0228    2.9261 C   0  0  0  0  0  0  0  0  0 20  0  0
    5.3791   -1.3349    2.8735 H   0  0  0  0  0  0  0  0  0 26  0  0
    3.8723    0.2723    2.7213 C   0  0  0  0  0  0  0  0  0 21  0  0
    4.4242    1.1592    2.4526 H   0  0  0  0  0  0  0  0  0 25  0  0
    2.5006    0.2360    2.9213 C   0  0  0  0  0  0  0  0  0 22  0  0
    1.4829    1.2617    2.8404 C   0  0  0  0  0  0  0  0  0 23  0  0
    1.6618    2.4230    2.5321 O   0  0  0  0  0  0  0  0  0 24  0  0
   -0.5401    2.6880    2.9227 H   0  0  0  0  0  0  0  0  0 29  0  0
   -1.3838    1.6666    4.1325 H   0  0  0  0  0  0  0  0  0 30  0  0
   -2.6082    0.6755   -0.1113 C   0  0  0  0  0  0  0  0  0 31  0  0
   -3.5500    0.4506    0.3962 H   0  0  0  0  0  0  0  0  0 35  0  0
   -2.7977    1.3719   -0.9447 H   0  0  0  0  0  0  0  0  0 36  0  0
   -1.9754   -0.6240   -0.6308 C   0  0  0  0  0  0  0  0  0 32  0  0
   -2.6433   -1.0820   -1.3445 H   0  0  0  0  0  0  0  0  0 33  0  0
   -1.8221   -1.2919    0.2220 H   0  0  0  0  0  0  0  0  0 34  0  0
   -2.5917   -2.4480   -2.7299 H   0  0  0  0  0  0  0  0  0 44  0  0
   -1.0328   -2.8248   -2.0203 H   0  0  0  0  0  0  0  0  0 45  0  0
   -1.4125   -3.3315   -3.6641 H   0  0  0  0  0  0  0  0  0 46  0  0
  1  2  1  0
  2  3  4  0
  3  4  1  0
  3  5  4  0
  5  6  1  0
  5  7  4  0
  7  8  1  0
  7  9  4  0
  9 10  1  0
  9 11  4  0
 11 12  1  0
 12 13  1  0
 13 14  1  0
 13 15  1  0
 13 16  1  0
 16 17  1  0
 16 18  1  0
 16 19  1  0
 19 20  1  0
 20 21  2  0
 20 22  1  0
 22 23  1  0
 23 24  4  0
 24 25  4  0
 25 26  1  0
 25 27  4  0
 27 28  4  0
 28 29  1  0
 28 30  4  0
 30 31  1  0
 30 32  4  0
 32 33  1  0
 32 34  4  0
 34 35  4  0
 35 36  2  0
 22 37  1  0
 22 38  1  0
 19 39  1  0
 39 40  1  0
 39 41  1  0
 39 42  1  0
 42 43  1  0
 42 44  1  0
  1 45  1  0
  1 46  1  0
  1 47  1  0
 11  2  4  0
 42 12  1  0
 35 23  4  0
 34 27  4  0
M  END
>  <sample_id>  (270)
train::Cc1ccc(Cl)cc1N1CCN(C(=O)Cn2ncn3cccc3c2=O)CC1__gen0002

>  <partition>  (270)
BAT_EXTERNAL_CONFIRM

>  <method>  (270)
BA_seed193

>  <candidate>  (270)
primary

$$$$
train::Cc1ccc(Cl)cc1NC(=S)N(Cc1ccco1)C(C)c1cccs1__gen0000
     RDKit          3D

 44 46  0  0  0  0  0  0  0  0999 V2000
    2.0107   -2.8098   -2.9245 C   0  0  0  0  0  0  0  0  0  0  0  0
    2.6255   -1.7268   -2.0708 C   0  0  0  0  0  0  0  0  0  1  0  0
    3.7848   -1.0713   -2.4558 C   0  0  0  0  0  0  0  0  0  2  0  0
    4.2350   -1.3141   -3.4018 H   0  0  0  0  0  0  0  0  0 40  0  0
    4.3655   -0.0929   -1.6670 C   0  0  0  0  0  0  0  0  0  3  0  0
    5.2550    0.4110   -1.9984 H   0  0  0  0  0  0  0  0  0 39  0  0
    3.7818    0.2151   -0.4577 C   0  0  0  0  0  0  0  0  0  4  0  0
    4.5156    1.3905    0.5700 Cl  0  0  0  0  0  0  0  0  0 38  0  0
    2.6392   -0.4294   -0.0351 C   0  0  0  0  0  0  0  0  0  5  0  0
    2.2125   -0.2034    0.9358 H   0  0  0  0  0  0  0  0  0 37  0  0
    2.0346   -1.3901   -0.8485 C   0  0  0  0  0  0  0  0  0  6  0  0
    0.8665   -2.0514   -0.4440 N   0  0  0  0  0  0  0  0  0  7  0  0
    0.0443   -1.7465    0.5867 C   0  0  0  0  0  0  0  0  0  8  0  0
   -0.3239   -0.4370    0.7691 N   0  0  0  0  0  0  0  0  0  9  0  0
   -0.9070   -0.0626    2.0402 C   0  0  0  0  0  0  0  0  0 10  0  0
   -2.4127   -0.1824    2.0739 C   0  0  0  0  0  0  0  0  0 11  0  0
   -3.2536   -1.1999    1.7414 C   0  0  0  0  0  0  0  0  0 12  0  0
   -2.9620   -2.1648    1.3695 H   0  0  0  0  0  0  0  0  0 18  0  0
   -4.5678   -0.7345    1.9940 C   0  0  0  0  0  0  0  0  0 13  0  0
   -5.4778   -1.2682    1.8504 H   0  0  0  0  0  0  0  0  0 17  0  0
   -4.4246    0.5378    2.4501 C   0  0  0  0  0  0  0  0  0 14  0  0
   -5.1351    1.2834    2.7645 H   0  0  0  0  0  0  0  0  0 16  0  0
   -3.1208    0.8828    2.4992 O   0  0  0  0  0  0  0  0  0 15  0  0
   -0.6388    0.9602    2.2764 H   0  0  0  0  0  0  0  0  0 19  0  0
   -0.5026   -0.7429    2.7881 H   0  0  0  0  0  0  0  0  0 20  0  0
   -0.4576    0.4577   -0.3518 C   0  0  2  0  0  0  0  0  0 21  0  0
   -0.3032    1.8805    0.0632 C   0  0  0  0  0  0  0  0  0 22  0  0
   -1.2395    2.8119    0.4105 C   0  0  0  0  0  0  0  0  0 23  0  0
   -2.2927    2.6288    0.4382 H   0  0  0  0  0  0  0  0  0 29  0  0
   -0.6702    4.0579    0.7695 C   0  0  0  0  0  0  0  0  0 24  0  0
   -1.2546    4.9063    1.0717 H   0  0  0  0  0  0  0  0  0 28  0  0
    0.6910    4.0642    0.6696 C   0  0  0  0  0  0  0  0  0 25  0  0
    1.3591    4.8770    0.8620 H   0  0  0  0  0  0  0  0  0 27  0  0
    1.2970    2.5742    0.1344 S   0  0  0  0  0  0  0  0  0 26  0  0
   -1.7864    0.2172   -1.0755 C   0  0  0  0  0  0  0  0  0 30  0  0
   -1.9273   -0.8405   -1.2623 H   0  0  0  0  0  0  0  0  0 31  0  0
   -1.7712    0.7323   -2.0456 H   0  0  0  0  0  0  0  0  0 32  0  0
   -2.6274    0.5926   -0.5076 H   0  0  0  0  0  0  0  0  0 33  0  0
    0.3468    0.2400   -1.0678 H   0  0  0  0  0  0  0  0  0 34  0  0
   -0.4579   -2.9784    1.5597 S   0  0  0  0  0  0  0  0  0 35  0  0
    0.8603   -3.0396   -0.6669 H   0  0  0  0  0  0  0  0  0 36  0  0
    2.1053   -3.7718   -2.4283 H   0  0  0  0  0  0  0  0  0 41  0  0
    0.9567   -2.5983   -3.1040 H   0  0  0  0  0  0  0  0  0 42  0  0
    2.5274   -2.8647   -3.8750 H   0  0  0  0  0  0  0  0  0 43  0  0
  1  2  1  0
  2  3  4  0
  3  4  1  0
  3  5  4  0
  5  6  1  0
  5  7  4  0
  7  8  1  0
  7  9  4  0
  9 10  1  0
  9 11  4  0
 11 12  1  0
 12 13  1  0
 13 14  1  0
 14 15  1  0
 15 16  1  0
 16 17  4  0
 17 18  1  0
 17 19  4  0
 19 20  1  0
 19 21  4  0
 21 22  1  0
 21 23  4  0
 15 24  1  0
 15 25  1  0
 14 26  1  0
 26 27  1  0
 27 28  4  0
 28 29  1  0
 28 30  4  0
 30 31  1  0
 30 32  4  0
 32 33  1  0
 32 34  4  0
 26 35  1  0
 35 36  1  0
 35 37  1  0
 35 38  1  0
 26 39  1  6
 13 40  2  0
 12 41  1  0
  1 42  1  0
  1 43  1  0
  1 44  1  0
 11  2  4  0
 23 16  4  0
 34 27  4  0
M  END
>  <sample_id>  (271)
train::Cc1ccc(Cl)cc1NC(=S)N(Cc1ccco1)C(C)c1cccs1__gen0000

>  <partition>  (271)
BAT_EXTERNAL_CONFIRM

>  <method>  (271)
BA_seed193

>  <candidate>  (271)
primary

$$$$
train::Cc1ccc(Cl)cc1NC(=S)N(Cc1ccco1)C(C)c1cccs1__gen0001
     RDKit          3D

 44 46  0  0  0  0  0  0  0  0999 V2000
    1.9802    3.5518    1.0702 C   0  0  0  0  0  0  0  0  0  0  0  0
    0.8414    3.5715    0.0856 C   0  0  0  0  0  0  0  0  0  1  0  0
    0.7951    4.4963   -0.9552 C   0  0  0  0  0  0  0  0  0  2  0  0
    1.5909    5.2183   -1.0409 H   0  0  0  0  0  0  0  0  0 40  0  0
   -0.2379    4.5179   -1.8680 C   0  0  0  0  0  0  0  0  0  3  0  0
   -0.2564    5.2387   -2.6731 H   0  0  0  0  0  0  0  0  0 39  0  0
   -1.2604    3.5901   -1.7308 C   0  0  0  0  0  0  0  0  0  4  0  0
   -2.5707    3.5998   -2.8648 Cl  0  0  0  0  0  0  0  0  0 38  0  0
   -1.2497    2.6596   -0.7252 C   0  0  0  0  0  0  0  0  0  5  0  0
   -2.0686    1.9622   -0.6119 H   0  0  0  0  0  0  0  0  0 37  0  0
   -0.2002    2.6379    0.1800 C   0  0  0  0  0  0  0  0  0  6  0  0
   -0.1554    1.7163    1.2244 N   0  0  0  0  0  0  0  0  0  7  0  0
   -0.8960    0.5509    1.3852 C   0  0  0  0  0  0  0  0  0  8  0  0
   -1.0471   -0.2717    0.3529 N   0  0  0  0  0  0  0  0  0  9  0  0
   -0.1298   -0.2739   -0.7802 C   0  0  0  0  0  0  0  0  0 10  0  0
    1.1462   -0.9993   -0.4613 C   0  0  0  0  0  0  0  0  0 11  0  0
    1.7004   -2.1321   -0.9842 C   0  0  0  0  0  0  0  0  0 12  0  0
    1.3038   -2.7345   -1.7763 H   0  0  0  0  0  0  0  0  0 18  0  0
    2.8952   -2.3526   -0.2637 C   0  0  0  0  0  0  0  0  0 13  0  0
    3.5875   -3.1561   -0.4083 H   0  0  0  0  0  0  0  0  0 17  0  0
    2.9814   -1.3326    0.6243 C   0  0  0  0  0  0  0  0  0 14  0  0
    3.7109   -1.0976    1.3753 H   0  0  0  0  0  0  0  0  0 16  0  0
    1.9310   -0.5113    0.5236 O   0  0  0  0  0  0  0  0  0 15  0  0
   -0.6070   -0.7751   -1.6342 H   0  0  0  0  0  0  0  0  0 19  0  0
    0.0902    0.7492   -1.0912 H   0  0  0  0  0  0  0  0  0 20  0  0
   -1.9416   -1.4245    0.4695 C   0  0  2  0  0  0  0  0  0 21  0  0
   -1.1402   -2.6697    0.6732 C   0  0  0  0  0  0  0  0  0 22  0  0
   -0.9187   -3.7274   -0.1666 C   0  0  0  0  0  0  0  0  0 23  0  0
   -1.3321   -3.8053   -1.1544 H   0  0  0  0  0  0  0  0  0 29  0  0
   -0.0759   -4.7162    0.3963 C   0  0  0  0  0  0  0  0  0 24  0  0
    0.2159   -5.6183   -0.1140 H   0  0  0  0  0  0  0  0  0 28  0  0
    0.3216   -4.3992    1.6573 C   0  0  0  0  0  0  0  0  0 25  0  0
    0.9650   -4.9655    2.3040 H   0  0  0  0  0  0  0  0  0 27  0  0
   -0.3335   -2.8993    2.1925 S   0  0  0  0  0  0  0  0  0 26  0  0
   -2.9454   -1.4666   -0.6891 C   0  0  0  0  0  0  0  0  0 30  0  0
   -3.4450   -0.5152   -0.7690 H   0  0  0  0  0  0  0  0  0 31  0  0
   -2.4677   -1.7019   -1.6366 H   0  0  0  0  0  0  0  0  0 32  0  0
   -3.6812   -2.2332   -0.4805 H   0  0  0  0  0  0  0  0  0 33  0  0
   -2.5151   -1.2436    1.3851 H   0  0  0  0  0  0  0  0  0 34  0  0
   -1.4897    0.2257    2.8997 S   0  0  0  0  0  0  0  0  0 35  0  0
    0.1470    2.0836    2.1202 H   0  0  0  0  0  0  0  0  0 36  0  0
    2.4167    2.5600    1.1160 H   0  0  0  0  0  0  0  0  0 41  0  0
    1.6152    3.8188    2.0594 H   0  0  0  0  0  0  0  0  0 42  0  0
    2.7298    4.2739    0.7849 H   0  0  0  0  0  0  0  0  0 43  0  0
  1  2  1  0
  2  3  4  0
  3  4  1  0
  3  5  4  0
  5  6  1  0
  5  7  4  0
  7  8  1  0
  7  9  4  0
  9 10  1  0
  9 11  4  0
 11 12  1  0
 12 13  1  0
 13 14  1  0
 14 15  1  0
 15 16  1  0
 16 17  4  0
 17 18  1  0
 17 19  4  0
 19 20  1  0
 19 21  4  0
 21 22  1  0
 21 23  4  0
 15 24  1  0
 15 25  1  0
 14 26  1  0
 26 27  1  0
 27 28  4  0
 28 29  1  0
 28 30  4  0
 30 31  1  0
 30 32  4  0
 32 33  1  0
 32 34  4  0
 26 35  1  0
 35 36  1  0
 35 37  1  0
 35 38  1  0
 26 39  1  1
 13 40  2  0
 12 41  1  0
  1 42  1  0
  1 43  1  0
  1 44  1  0
 11  2  4  0
 23 16  4  0
 34 27  4  0
M  END
>  <sample_id>  (272)
train::Cc1ccc(Cl)cc1NC(=S)N(Cc1ccco1)C(C)c1cccs1__gen0001

>  <partition>  (272)
BAT_EXTERNAL_CONFIRM

>  <method>  (272)
BA_seed193

>  <candidate>  (272)
primary

$$$$
train::Cc1ccc(Cl)cc1NC(=S)N(Cc1ccco1)C(C)c1cccs1__gen0002
     RDKit          3D

 44 46  0  0  0  0  0  0  0  0999 V2000
    0.8846   -2.0683    2.7736 C   0  0  0  0  0  0  0  0  0  0  0  0
   -0.5405   -1.7416    3.1333 C   0  0  0  0  0  0  0  0  0  1  0  0
   -1.1445   -2.3042    4.2506 C   0  0  0  0  0  0  0  0  0  2  0  0
   -0.5668   -2.9850    4.8601 H   0  0  0  0  0  0  0  0  0 40  0  0
   -2.4477   -2.0092    4.5942 C   0  0  0  0  0  0  0  0  0  3  0  0
   -2.9021   -2.4663    5.4582 H   0  0  0  0  0  0  0  0  0 39  0  0
   -3.1721   -1.1368    3.8019 C   0  0  0  0  0  0  0  0  0  4  0  0
   -4.8066   -0.7515    4.2089 Cl  0  0  0  0  0  0  0  0  0 38  0  0
   -2.6083   -0.5642    2.6807 C   0  0  0  0  0  0  0  0  0  5  0  0
   -3.1653    0.1199    2.0625 H   0  0  0  0  0  0  0  0  0 37  0  0
   -1.2914   -0.8578    2.3368 C   0  0  0  0  0  0  0  0  0  6  0  0
   -0.6958   -0.2378    1.2389 N   0  0  0  0  0  0  0  0  0  7  0  0
   -1.2421   -0.1084   -0.0033 C   0  0  0  0  0  0  0  0  0  8  0  0
   -0.5577    0.6716   -0.8790 N   0  0  0  0  0  0  0  0  0  9  0  0
    0.6301    1.3838   -0.4772 C   0  0  0  0  0  0  0  0  0 10  0  0
    1.8003    0.4823   -0.1799 C   0  0  0  0  0  0  0  0  0 11  0  0
    2.4393   -0.4987   -0.8960 C   0  0  0  0  0  0  0  0  0 12  0  0
    2.2135   -0.8417   -1.8864 H   0  0  0  0  0  0  0  0  0 18  0  0
    3.5065   -0.9583   -0.0839 C   0  0  0  0  0  0  0  0  0 13  0  0
    4.2097   -1.7175   -0.3318 H   0  0  0  0  0  0  0  0  0 17  0  0
    3.4461   -0.2345    1.0602 C   0  0  0  0  0  0  0  0  0 14  0  0
    4.0476   -0.2389    1.9461 H   0  0  0  0  0  0  0  0  0 16  0  0
    2.4205    0.6385    1.0096 O   0  0  0  0  0  0  0  0  0 15  0  0
    0.4298    1.9958    0.4053 H   0  0  0  0  0  0  0  0  0 19  0  0
    0.9052    2.0615   -1.2961 H   0  0  0  0  0  0  0  0  0 20  0  0
   -1.1165    0.9196   -2.2013 C   0  0  2  0  0  0  0  0  0 21  0  0
   -0.0598    1.0530   -3.2689 C   0  0  0  0  0  0  0  0  0 22  0  0
    0.4061    2.1770   -3.8840 C   0  0  0  0  0  0  0  0  0 23  0  0
    0.0377    3.1649   -3.6733 H   0  0  0  0  0  0  0  0  0 29  0  0
    1.3969    1.9129   -4.8443 C   0  0  0  0  0  0  0  0  0 24  0  0
    1.8869    2.6724   -5.4248 H   0  0  0  0  0  0  0  0  0 28  0  0
    1.6777    0.5834   -4.9543 C   0  0  0  0  0  0  0  0  0 25  0  0
    2.3908    0.1022   -5.5989 H   0  0  0  0  0  0  0  0  0 27  0  0
    0.7088   -0.3734   -3.9008 S   0  0  0  0  0  0  0  0  0 26  0  0
   -2.0249    2.1676   -2.1466 C   0  0  0  0  0  0  0  0  0 30  0  0
   -2.4905    2.3054   -3.1181 H   0  0  0  0  0  0  0  0  0 31  0  0
   -1.4555    3.0543   -1.8921 H   0  0  0  0  0  0  0  0  0 32  0  0
   -2.8057    2.0282   -1.3995 H   0  0  0  0  0  0  0  0  0 33  0  0
   -1.7544    0.0595   -2.4288 H   0  0  0  0  0  0  0  0  0 34  0  0
   -2.6488   -0.8771   -0.4039 S   0  0  0  0  0  0  0  0  0 35  0  0
    0.3151   -0.1187    1.3099 H   0  0  0  0  0  0  0  0  0 36  0  0
    1.5239   -1.1990    2.9054 H   0  0  0  0  0  0  0  0  0 41  0  0
    1.2546   -2.8716    3.4032 H   0  0  0  0  0  0  0  0  0 42  0  0
    0.9655   -2.3931    1.7337 H   0  0  0  0  0  0  0  0  0 43  0  0
  1  2  1  0
  2  3  4  0
  3  4  1  0
  3  5  4  0
  5  6  1  0
  5  7  4  0
  7  8  1  0
  7  9  4  0
  9 10  1  0
  9 11  4  0
 11 12  1  0
 12 13  1  0
 13 14  1  0
 14 15  1  0
 15 16  1  0
 16 17  4  0
 17 18  1  0
 17 19  4  0
 19 20  1  0
 19 21  4  0
 21 22  1  0
 21 23  4  0
 15 24  1  0
 15 25  1  0
 14 26  1  0
 26 27  1  0
 27 28  4  0
 28 29  1  0
 28 30  4  0
 30 31  1  0
 30 32  4  0
 32 33  1  0
 32 34  4  0
 26 35  1  0
 35 36  1  0
 35 37  1  0
 35 38  1  0
 26 39  1  6
 13 40  2  0
 12 41  1  0
  1 42  1  0
  1 43  1  0
  1 44  1  0
 11  2  4  0
 23 16  4  0
 34 27  4  0
M  END
>  <sample_id>  (273)
train::Cc1ccc(Cl)cc1NC(=S)N(Cc1ccco1)C(C)c1cccs1__gen0002

>  <partition>  (273)
BAT_EXTERNAL_CONFIRM

>  <method>  (273)
BA_seed193

>  <candidate>  (273)
primary

$$$$
train::NS(=O)(=O)c1ccc(CCn2c(=S)[nH]c3ccccc3c2=O)cc1__gen0000
     RDKit          3D

 39 41  0  0  0  0  0  0  0  0999 V2000
   -3.1296   -3.0665   -0.8517 N   0  0  0  0  0  0  0  0  0  0  0  0
   -1.6047   -2.4048   -1.0246 S   0  0  2  0  0  6  0  0  0  1  0  0
   -1.4266   -1.9616   -2.3782 O   0  0  0  0  0  0  0  0  0  2  0  0
   -0.6426   -3.3082   -0.4539 O   0  0  0  0  0  0  0  0  0  3  0  0
   -1.6951   -0.9840    0.0487 C   0  0  0  0  0  0  0  0  0  4  0  0
   -1.6682    0.2932   -0.4825 C   0  0  0  0  0  0  0  0  0  5  0  0
   -1.7975    0.4113   -1.5391 H   0  0  0  0  0  0  0  0  0 36  0  0
   -1.4150    1.3648    0.3511 C   0  0  0  0  0  0  0  0  0  6  0  0
   -1.3415    2.3586   -0.0659 H   0  0  0  0  0  0  0  0  0 35  0  0
   -1.1628    1.1587    1.7074 C   0  0  0  0  0  0  0  0  0  7  0  0
   -0.4840    2.2214    2.5042 C   0  0  0  0  0  0  0  0  0 12  0  0
   -0.6065    3.1908    2.0069 H   0  0  0  0  0  0  0  0  0 13  0  0
   -0.8781    2.3007    3.5206 H   0  0  0  0  0  0  0  0  0 14  0  0
    1.0267    1.8824    2.5827 C   0  0  0  0  0  0  0  0  0 15  0  0
    1.4326    1.1138    1.4108 N   0  0  0  0  0  0  0  0  0 16  0  0
    1.5350   -0.2557    1.5065 C   0  0  0  0  0  0  0  0  0 17  0  0
    1.5370   -1.0609    2.9365 S   0  0  0  0  0  0  0  0  0 18  0  0
    1.6394   -0.9623    0.3611 N   0  0  0  0  0  0  0  0  0 19  0  0
    1.6344   -1.9729    0.4470 H   0  0  0  0  0  0  0  0  0 32  0  0
    1.6204   -0.4007   -0.8987 C   0  0  0  0  0  0  0  0  0 20  0  0
    1.6292   -1.1904   -2.0426 C   0  0  0  0  0  0  0  0  0 21  0  0
    1.6117   -2.2648   -1.9446 H   0  0  0  0  0  0  0  0  0 31  0  0
    1.5801   -0.5896   -3.2822 C   0  0  0  0  0  0  0  0  0 22  0  0
    1.5936   -1.2044   -4.1683 H   0  0  0  0  0  0  0  0  0 30  0  0
    1.5700    0.7955   -3.3963 C   0  0  0  0  0  0  0  0  0 23  0  0
    1.5417    1.2622   -4.3688 H   0  0  0  0  0  0  0  0  0 29  0  0
    1.5455    1.5824   -2.2635 C   0  0  0  0  0  0  0  0  0 24  0  0
    1.5153    2.6620   -2.3179 H   0  0  0  0  0  0  0  0  0 28  0  0
    1.5701    0.9935   -0.9955 C   0  0  0  0  0  0  0  0  0 25  0  0
    1.4799    1.8173    0.2043 C   0  0  0  0  0  0  0  0  0 26  0  0
    1.4360    3.0228    0.1937 O   0  0  0  0  0  0  0  0  0 27  0  0
    1.6259    2.7937    2.6182 H   0  0  0  0  0  0  0  0  0 33  0  0
    1.2347    1.2629    3.4576 H   0  0  0  0  0  0  0  0  0 34  0  0
   -1.3537   -0.1086    2.2449 C   0  0  0  0  0  0  0  0  0  8  0  0
   -1.2257   -0.2694    3.3075 H   0  0  0  0  0  0  0  0  0 11  0  0
   -1.5936   -1.1919    1.4123 C   0  0  0  0  0  0  0  0  0  9  0  0
   -1.6183   -2.1989    1.8086 H   0  0  0  0  0  0  0  0  0 10  0  0
   -3.1067   -3.9756   -0.4187 H   0  0  0  0  0  0  0  0  0 37  0  0
   -3.6093   -3.1167   -1.7374 H   0  0  0  0  0  0  0  0  0 38  0  0
  2  1  1  6
  2  3  2  0
  2  4  2  0
  2  5  1  0
  5  6  4  0
  6  7  1  0
  6  8  4  0
  8  9  1  0
  8 10  4  0
 10 11  1  0
 11 12  1  0
 11 13  1  0
 11 14  1  0
 14 15  1  0
 15 16  4  0
 16 17  2  0
 16 18  4  0
 18 19  1  0
 18 20  4  0
 20 21  4  0
 21 22  1  0
 21 23  4  0
 23 24  1  0
 23 25  4  0
 25 26  1  0
 25 27  4  0
 27 28  1  0
 27 29  4  0
 29 30  4  0
 30 31  2  0
 14 32  1  0
 14 33  1  0
 10 34  4  0
 34 35  1  0
 34 36  4  0
 36 37  1  0
  1 38  1  0
  1 39  1  0
 36  5  4  0
 30 15  4  0
 29 20  4  0
M  END
>  <sample_id>  (274)
train::NS(=O)(=O)c1ccc(CCn2c(=S)[nH]c3ccccc3c2=O)cc1__gen0000

>  <partition>  (274)
BAT_EXTERNAL_CONFIRM

>  <method>  (274)
BA_seed193

>  <candidate>  (274)
primary

$$$$
train::NS(=O)(=O)c1ccc(CCn2c(=S)[nH]c3ccccc3c2=O)cc1__gen0001
     RDKit          3D

 39 41  0  0  0  0  0  0  0  0999 V2000
    1.7093   -3.9555   -0.4253 N   0  0  0  0  0  0  0  0  0  0  0  0
    0.1837   -3.4229    0.0105 S   0  0  2  0  0  6  0  0  0  1  0  0
    0.2772   -2.9363    1.3563 O   0  0  0  0  0  0  0  0  0  2  0  0
   -0.7912   -4.4251   -0.3116 O   0  0  0  0  0  0  0  0  0  3  0  0
   -0.0286   -2.0008   -1.0449 C   0  0  0  0  0  0  0  0  0  4  0  0
   -1.1721   -1.8507   -1.8054 C   0  0  0  0  0  0  0  0  0  5  0  0
   -1.8694   -2.6696   -1.8514 H   0  0  0  0  0  0  0  0  0 36  0  0
   -1.4254   -0.6253   -2.3938 C   0  0  0  0  0  0  0  0  0  6  0  0
   -2.3496   -0.4755   -2.9390 H   0  0  0  0  0  0  0  0  0 35  0  0
   -0.5297    0.4323   -2.2288 C   0  0  0  0  0  0  0  0  0  7  0  0
   -0.9388    1.8253   -2.5892 C   0  0  0  0  0  0  0  0  0 12  0  0
   -0.0475    2.4519   -2.7124 H   0  0  0  0  0  0  0  0  0 13  0  0
   -1.5208    1.8595   -3.5129 H   0  0  0  0  0  0  0  0  0 14  0  0
   -1.7951    2.4028   -1.4195 C   0  0  0  0  0  0  0  0  0 15  0  0
   -1.3000    1.9039   -0.1529 N   0  0  0  0  0  0  0  0  0 16  0  0
   -1.8914    0.7919    0.4040 C   0  0  0  0  0  0  0  0  0 17  0  0
   -3.3324    0.1841   -0.1169 S   0  0  0  0  0  0  0  0  0 18  0  0
   -1.2662    0.1787    1.4154 N   0  0  0  0  0  0  0  0  0 19  0  0
   -1.6832   -0.6862    1.7339 H   0  0  0  0  0  0  0  0  0 32  0  0
   -0.0272    0.5502    1.9005 C   0  0  0  0  0  0  0  0  0 20  0  0
    0.6443   -0.2040    2.8566 C   0  0  0  0  0  0  0  0  0 21  0  0
    0.2190   -1.1349    3.1875 H   0  0  0  0  0  0  0  0  0 31  0  0
    1.8702    0.2339    3.3232 C   0  0  0  0  0  0  0  0  0 22  0  0
    2.3963   -0.3510    4.0587 H   0  0  0  0  0  0  0  0  0 30  0  0
    2.4212    1.4235    2.8596 C   0  0  0  0  0  0  0  0  0 23  0  0
    3.3767    1.7548    3.2499 H   0  0  0  0  0  0  0  0  0 29  0  0
    1.7600    2.1728    1.9091 C   0  0  0  0  0  0  0  0  0 24  0  0
    2.1690    3.0892    1.5261 H   0  0  0  0  0  0  0  0  0 28  0  0
    0.5352    1.7331    1.4066 C   0  0  0  0  0  0  0  0  0 25  0  0
   -0.1241    2.4628    0.3208 C   0  0  0  0  0  0  0  0  0 26  0  0
    0.3302    3.4745   -0.1716 O   0  0  0  0  0  0  0  0  0 27  0  0
   -1.7411    3.4929   -1.4235 H   0  0  0  0  0  0  0  0  0 33  0  0
   -2.8300    2.0725   -1.5307 H   0  0  0  0  0  0  0  0  0 34  0  0
    0.6713    0.2150   -1.5636 C   0  0  0  0  0  0  0  0  0  8  0  0
    1.3848    1.0201   -1.4744 H   0  0  0  0  0  0  0  0  0 11  0  0
    0.9085   -0.9930   -0.9403 C   0  0  0  0  0  0  0  0  0  9  0  0
    1.8057   -1.1641   -0.3628 H   0  0  0  0  0  0  0  0  0 10  0  0
    1.6785   -4.8303   -0.9229 H   0  0  0  0  0  0  0  0  0 37  0  0
    2.3229   -4.0003    0.3752 H   0  0  0  0  0  0  0  0  0 38  0  0
  2  1  1  6
  2  3  2  0
  2  4  2  0
  2  5  1  0
  5  6  4  0
  6  7  1  0
  6  8  4  0
  8  9  1  0
  8 10  4  0
 10 11  1  0
 11 12  1  0
 11 13  1  0
 11 14  1  0
 14 15  1  0
 15 16  4  0
 16 17  2  0
 16 18  4  0
 18 19  1  0
 18 20  4  0
 20 21  4  0
 21 22  1  0
 21 23  4  0
 23 24  1  0
 23 25  4  0
 25 26  1  0
 25 27  4  0
 27 28  1  0
 27 29  4  0
 29 30  4  0
 30 31  2  0
 14 32  1  0
 14 33  1  0
 10 34  4  0
 34 35  1  0
 34 36  4  0
 36 37  1  0
  1 38  1  0
  1 39  1  0
 36  5  4  0
 30 15  4  0
 29 20  4  0
M  END
>  <sample_id>  (275)
train::NS(=O)(=O)c1ccc(CCn2c(=S)[nH]c3ccccc3c2=O)cc1__gen0001

>  <partition>  (275)
BAT_EXTERNAL_CONFIRM

>  <method>  (275)
BA_seed193

>  <candidate>  (275)
primary

$$$$
train::NS(=O)(=O)c1ccc(CCn2c(=S)[nH]c3ccccc3c2=O)cc1__gen0002
     RDKit          3D

 39 41  0  0  0  0  0  0  0  0999 V2000
    2.6843    1.2401   -3.2446 N   0  0  0  0  0  0  0  0  0  0  0  0
    1.7338    1.6679   -1.9209 S   0  0  2  0  0  6  0  0  0  1  0  0
    0.7819    2.6591   -2.3290 O   0  0  0  0  0  0  0  0  0  2  0  0
    2.6074    1.9736   -0.8192 O   0  0  0  0  0  0  0  0  0  3  0  0
    0.9051    0.1360   -1.5934 C   0  0  0  0  0  0  0  0  0  4  0  0
    1.6041   -0.8853   -0.9913 C   0  0  0  0  0  0  0  0  0  5  0  0
    2.6640   -0.7657   -0.7997 H   0  0  0  0  0  0  0  0  0 36  0  0
    0.9413   -2.0182   -0.5760 C   0  0  0  0  0  0  0  0  0  6  0  0
    1.4857   -2.8219   -0.0800 H   0  0  0  0  0  0  0  0  0 35  0  0
   -0.4355   -2.1295   -0.7470 C   0  0  0  0  0  0  0  0  0  7  0  0
   -1.1902   -3.2468   -0.0844 C   0  0  0  0  0  0  0  0  0 12  0  0
   -0.5226   -4.0726    0.1630 H   0  0  0  0  0  0  0  0  0 13  0  0
   -2.0097   -3.5993   -0.7072 H   0  0  0  0  0  0  0  0  0 14  0  0
   -1.7989   -2.6952    1.2556 C   0  0  0  0  0  0  0  0  0 15  0  0
   -1.2210   -1.4212    1.6118 N   0  0  0  0  0  0  0  0  0 16  0  0
    0.0346   -1.3750    2.1485 C   0  0  0  0  0  0  0  0  0 17  0  0
    0.8035   -2.7212    2.7139 S   0  0  0  0  0  0  0  0  0 18  0  0
    0.6750   -0.1803    2.2065 N   0  0  0  0  0  0  0  0  0 19  0  0
    1.6139   -0.2033    2.5866 H   0  0  0  0  0  0  0  0  0 32  0  0
    0.1564    0.9843    1.7035 C   0  0  0  0  0  0  0  0  0 20  0  0
    0.9222    2.1442    1.6448 C   0  0  0  0  0  0  0  0  0 21  0  0
    1.9337    2.1434    2.0320 H   0  0  0  0  0  0  0  0  0 31  0  0
    0.3856    3.2840    1.0944 C   0  0  0  0  0  0  0  0  0 22  0  0
    0.9724    4.1856    1.0307 H   0  0  0  0  0  0  0  0  0 30  0  0
   -0.9116    3.2878    0.5913 C   0  0  0  0  0  0  0  0  0 23  0  0
   -1.3169    4.1802    0.1379 H   0  0  0  0  0  0  0  0  0 29  0  0
   -1.6738    2.1350    0.6446 C   0  0  0  0  0  0  0  0  0 24  0  0
   -2.6808    2.1066    0.2567 H   0  0  0  0  0  0  0  0  0 28  0  0
   -1.1404    0.9748    1.2022 C   0  0  0  0  0  0  0  0  0 25  0  0
   -1.9129   -0.2660    1.1680 C   0  0  0  0  0  0  0  0  0 26  0  0
   -3.0579   -0.3567    0.7960 O   0  0  0  0  0  0  0  0  0 27  0  0
   -1.6005   -3.3947    2.0748 H   0  0  0  0  0  0  0  0  0 33  0  0
   -2.8748   -2.5360    1.1635 H   0  0  0  0  0  0  0  0  0 34  0  0
   -1.1124   -1.1289   -1.4471 C   0  0  0  0  0  0  0  0  0  8  0  0
   -2.1781   -1.2297   -1.6220 H   0  0  0  0  0  0  0  0  0 11  0  0
   -0.4461    0.0028   -1.8573 C   0  0  0  0  0  0  0  0  0  9  0  0
   -0.9595    0.8169   -2.3379 H   0  0  0  0  0  0  0  0  0 10  0  0
    2.4729    1.8257   -4.0451 H   0  0  0  0  0  0  0  0  0 37  0  0
    3.6658    1.2993   -3.0243 H   0  0  0  0  0  0  0  0  0 38  0  0
  2  1  1  6
  2  3  2  0
  2  4  2  0
  2  5  1  0
  5  6  4  0
  6  7  1  0
  6  8  4  0
  8  9  1  0
  8 10  4  0
 10 11  1  0
 11 12  1  0
 11 13  1  0
 11 14  1  0
 14 15  1  0
 15 16  4  0
 16 17  2  0
 16 18  4  0
 18 19  1  0
 18 20  4  0
 20 21  4  0
 21 22  1  0
 21 23  4  0
 23 24  1  0
 23 25  4  0
 25 26  1  0
 25 27  4  0
 27 28  1  0
 27 29  4  0
 29 30  4  0
 30 31  2  0
 14 32  1  0
 14 33  1  0
 10 34  4  0
 34 35  1  0
 34 36  4  0
 36 37  1  0
  1 38  1  0
  1 39  1  0
 36  5  4  0
 30 15  4  0
 29 20  4  0
M  END
>  <sample_id>  (276)
train::NS(=O)(=O)c1ccc(CCn2c(=S)[nH]c3ccccc3c2=O)cc1__gen0002

>  <partition>  (276)
BAT_EXTERNAL_CONFIRM

>  <method>  (276)
BA_seed193

>  <candidate>  (276)
primary

$$$$
train::O=C(C[n+]1cc(-c2ccc(Cl)c(Cl)c2)n2c1CCC2)OCc1ccccc1__gen0000
     RDKit          3D

 46 49  0  0  0  0  0  0  0  0999 V2000
    0.9220    1.7110    0.6272 O   0  0  0  0  0  0  0  0  0  0  0  0
    0.9565    2.0074   -0.5307 C   0  0  0  0  0  0  0  0  0  1  0  0
    0.8581    3.2278   -1.0310 O   0  0  0  0  0  0  0  0  0  2  0  0
    0.6002    4.3079   -0.1325 C   0  0  0  0  0  0  0  0  0  3  0  0
   -0.8842    4.5367    0.0039 C   0  0  0  0  0  0  0  0  0  4  0  0
   -1.5947    3.9452    1.0404 C   0  0  0  0  0  0  0  0  0  5  0  0
   -1.0654    3.3439    1.7810 H   0  0  0  0  0  0  0  0  0 14  0  0
   -2.9657    4.1293    1.1280 C   0  0  0  0  0  0  0  0  0  6  0  0
   -3.4897    3.6634    1.9536 H   0  0  0  0  0  0  0  0  0 13  0  0
   -3.6254    4.9013    0.2058 C   0  0  0  0  0  0  0  0  0  7  0  0
   -4.6913    5.0333    0.2972 H   0  0  0  0  0  0  0  0  0 12  0  0
   -2.9267    5.4843   -0.8290 C   0  0  0  0  0  0  0  0  0  8  0  0
   -3.4402    6.0884   -1.5623 H   0  0  0  0  0  0  0  0  0 11  0  0
   -1.5601    5.3175   -0.9230 C   0  0  0  0  0  0  0  0  0  9  0  0
   -1.0121    5.7576   -1.7510 H   0  0  0  0  0  0  0  0  0 10  0  0
    1.0953    5.1710   -0.5895 H   0  0  0  0  0  0  0  0  0 15  0  0
    1.0422    4.0868    0.8468 H   0  0  0  0  0  0  0  0  0 16  0  0
    1.1779    0.9828   -1.6479 C   0  0  0  0  0  0  0  0  0 17  0  0
    1.1313   -0.3335   -1.0893 N   0  0  0  0  0  0  0  0  0 18  0  0
    1.9478   -0.7943   -0.1434 C   0  0  0  0  0  0  0  0  0 19  0  0
    1.5113   -1.9905    0.2579 N   0  0  0  0  0  0  0  0  0 20  0  0
    0.3711   -2.3221   -0.4209 C   0  0  0  0  0  0  0  0  0 21  0  0
   -0.4408   -3.5186   -0.2313 C   0  0  0  0  0  0  0  0  0 24  0  0
    0.1441   -4.7575    0.0535 C   0  0  0  0  0  0  0  0  0 25  0  0
    1.2196   -4.8778    0.0941 H   0  0  0  0  0  0  0  0  0 34  0  0
   -0.6486   -5.8767    0.2115 C   0  0  0  0  0  0  0  0  0 26  0  0
    0.0950   -7.3946    0.5553 Cl  0  0  0  0  0  0  0  0  0 33  0  0
   -2.0328   -5.7807    0.1009 C   0  0  0  0  0  0  0  0  0 27  0  0
   -3.0232   -7.1777    0.2973 Cl  0  0  0  0  0  0  0  0  0 32  0  0
   -2.6152   -4.5603   -0.1875 C   0  0  0  0  0  0  0  0  0 28  0  0
   -3.6847   -4.4943   -0.2903 H   0  0  0  0  0  0  0  0  0 31  0  0
   -1.8230   -3.4351   -0.3582 C   0  0  0  0  0  0  0  0  0 29  0  0
   -2.2814   -2.4827   -0.5715 H   0  0  0  0  0  0  0  0  0 30  0  0
    0.1281   -1.2620   -1.2552 C   0  0  0  0  0  0  0  0  0 22  0  0
   -0.6645   -1.0992   -1.9448 H   0  0  0  0  0  0  0  0  0 23  0  0
    2.3345   -2.5250    1.3181 C   0  0  0  0  0  0  0  0  0 35  0  0
    2.5404   -3.5926    1.1862 H   0  0  0  0  0  0  0  0  0 36  0  0
    1.8209   -2.3940    2.2720 H   0  0  0  0  0  0  0  0  0 37  0  0
    3.6136   -1.6780    1.2081 C   0  0  0  0  0  0  0  0  0 38  0  0
    4.0479   -1.5221    2.1987 H   0  0  0  0  0  0  0  0  0 39  0  0
    4.3461   -2.1893    0.5951 H   0  0  0  0  0  0  0  0  0 40  0  0
    3.1609   -0.3537    0.5659 C   0  0  0  0  0  0  0  0  0 41  0  0
    2.9019    0.3944    1.3122 H   0  0  0  0  0  0  0  0  0 42  0  0
    3.9298    0.0527   -0.0961 H   0  0  0  0  0  0  0  0  0 43  0  0
    0.4157    1.0908   -2.4195 H   0  0  0  0  0  0  0  0  0 44  0  0
    2.1575    1.1788   -2.1058 H   0  0  0  0  0  0  0  0  0 45  0  0
  1  2  2  0
  2  3  1  0
  3  4  1  0
  4  5  1  0
  5  6  4  0
  6  7  1  0
  6  8  4  0
  8  9  1  0
  8 10  4  0
 10 11  1  0
 10 12  4  0
 12 13  1  0
 12 14  4  0
 14 15  1  0
  4 16  1  0
  4 17  1  0
  2 18  1  0
 18 19  1  0
 19 20  4  0
 20 21  4  0
 21 22  4  0
 22 23  1  0
 23 24  4  0
 24 25  1  0
 24 26  4  0
 26 27  1  0
 26 28  4  0
 28 29  1  0
 28 30  4  0
 30 31  1  0
 30 32  4  0
 32 33  1  0
 22 34  4  0
 34 35  1  0
 21 36  1  0
 36 37  1  0
 36 38  1  0
 36 39  1  0
 39 40  1  0
 39 41  1  0
 39 42  1  0
 42 43  1  0
 42 44  1  0
 18 45  1  0
 18 46  1  0
 14  5  4  0
 34 19  4  0
 42 20  1  0
 32 23  4  0
M  CHG  1  21   1
M  END
>  <sample_id>  (277)
train::O=C(C[n+]1cc(-c2ccc(Cl)c(Cl)c2)n2c1CCC2)OCc1ccccc1__gen0000

>  <partition>  (277)
BAT_EXTERNAL_CONFIRM

>  <method>  (277)
BA_seed193

>  <candidate>  (277)
primary

$$$$
train::O=C(C[n+]1cc(-c2ccc(Cl)c(Cl)c2)n2c1CCC2)OCc1ccccc1__gen0001
     RDKit          3D

 46 49  0  0  0  0  0  0  0  0999 V2000
   -0.1337   -3.4298   -2.3802 O   0  0  0  0  0  0  0  0  0  0  0  0
    0.6647   -3.0974   -1.5575 C   0  0  0  0  0  0  0  0  0  1  0  0
    0.5642   -3.2109   -0.2558 O   0  0  0  0  0  0  0  0  0  2  0  0
   -0.7183   -3.5996    0.2914 C   0  0  0  0  0  0  0  0  0  3  0  0
   -1.5142   -2.3465    0.5209 C   0  0  0  0  0  0  0  0  0  4  0  0
   -1.0090   -1.3693    1.3819 C   0  0  0  0  0  0  0  0  0  5  0  0
   -0.0830   -1.5550    1.9034 H   0  0  0  0  0  0  0  0  0 14  0  0
   -1.6824   -0.1651    1.5632 C   0  0  0  0  0  0  0  0  0  6  0  0
   -1.2979    0.5598    2.2565 H   0  0  0  0  0  0  0  0  0 13  0  0
   -2.8707    0.0442    0.8919 C   0  0  0  0  0  0  0  0  0  7  0  0
   -3.4190    0.9799    1.0376 H   0  0  0  0  0  0  0  0  0 12  0  0
   -3.3616   -0.8932    0.0211 C   0  0  0  0  0  0  0  0  0  8  0  0
   -4.3032   -0.7300   -0.5012 H   0  0  0  0  0  0  0  0  0 11  0  0
   -2.6872   -2.0986   -0.1596 C   0  0  0  0  0  0  0  0  0  9  0  0
   -3.0872   -2.8440   -0.8422 H   0  0  0  0  0  0  0  0  0 10  0  0
   -0.4818   -4.1070    1.2282 H   0  0  0  0  0  0  0  0  0 15  0  0
   -1.2254   -4.2885   -0.3885 H   0  0  0  0  0  0  0  0  0 16  0  0
    1.9020   -2.2254   -1.8941 C   0  0  0  0  0  0  0  0  0 17  0  0
    1.5954   -0.9097   -1.3894 N   0  0  0  0  0  0  0  0  0 18  0  0
    0.5295   -0.1788   -1.7752 C   0  0  0  0  0  0  0  0  0 19  0  0
    0.4107    0.8566   -0.9543 N   0  0  0  0  0  0  0  0  0 20  0  0
    1.3718    0.8069    0.0359 C   0  0  0  0  0  0  0  0  0 21  0  0
    1.5311    1.7331    1.1347 C   0  0  0  0  0  0  0  0  0 24  0  0
    1.2894    3.1011    0.9936 C   0  0  0  0  0  0  0  0  0 25  0  0
    0.9944    3.5125    0.0648 H   0  0  0  0  0  0  0  0  0 34  0  0
    1.4685    3.9457    2.0701 C   0  0  0  0  0  0  0  0  0 26  0  0
    1.1554    5.6331    1.8808 Cl  0  0  0  0  0  0  0  0  0 33  0  0
    1.8916    3.4521    3.3094 C   0  0  0  0  0  0  0  0  0 27  0  0
    2.1231    4.5065    4.6540 Cl  0  0  0  0  0  0  0  0  0 32  0  0
    2.1438    2.0962    3.4396 C   0  0  0  0  0  0  0  0  0 28  0  0
    2.4980    1.7180    4.3999 H   0  0  0  0  0  0  0  0  0 31  0  0
    1.9951    1.2344    2.3673 C   0  0  0  0  0  0  0  0  0 29  0  0
    2.1731    0.1906    2.4861 H   0  0  0  0  0  0  0  0  0 30  0  0
    2.0957   -0.3198   -0.2448 C   0  0  0  0  0  0  0  0  0 22  0  0
    2.9473   -0.7406    0.2522 H   0  0  0  0  0  0  0  0  0 23  0  0
   -0.7009    1.7063   -1.3240 C   0  0  0  0  0  0  0  0  0 35  0  0
   -0.4243    2.7605   -1.3088 H   0  0  0  0  0  0  0  0  0 36  0  0
   -1.5193    1.5587   -0.5989 H   0  0  0  0  0  0  0  0  0 37  0  0
   -1.0749    1.1911   -2.7223 C   0  0  0  0  0  0  0  0  0 38  0  0
   -2.1489    1.2154   -2.8654 H   0  0  0  0  0  0  0  0  0 39  0  0
   -0.6227    1.8091   -3.4878 H   0  0  0  0  0  0  0  0  0 40  0  0
   -0.4865   -0.2500   -2.8149 C   0  0  0  0  0  0  0  0  0 41  0  0
   -0.0977   -0.4640   -3.8006 H   0  0  0  0  0  0  0  0  0 42  0  0
   -1.2457   -1.0051   -2.5646 H   0  0  0  0  0  0  0  0  0 43  0  0
    2.7910   -2.5869   -1.3778 H   0  0  0  0  0  0  0  0  0 44  0  0
    2.0595   -2.1965   -2.9766 H   0  0  0  0  0  0  0  0  0 45  0  0
  1  2  2  0
  2  3  1  0
  3  4  1  0
  4  5  1  0
  5  6  4  0
  6  7  1  0
  6  8  4  0
  8  9  1  0
  8 10  4  0
 10 11  1  0
 10 12  4  0
 12 13  1  0
 12 14  4  0
 14 15  1  0
  4 16  1  0
  4 17  1  0
  2 18  1  0
 18 19  1  0
 19 20  4  0
 20 21  4  0
 21 22  4  0
 22 23  1  0
 23 24  4  0
 24 25  1  0
 24 26  4  0
 26 27  1  0
 26 28  4  0
 28 29  1  0
 28 30  4  0
 30 31  1  0
 30 32  4  0
 32 33  1  0
 22 34  4  0
 34 35  1  0
 21 36  1  0
 36 37  1  0
 36 38  1  0
 36 39  1  0
 39 40  1  0
 39 41  1  0
 39 42  1  0
 42 43  1  0
 42 44  1  0
 18 45  1  0
 18 46  1  0
 14  5  4  0
 34 19  4  0
 42 20  1  0
 32 23  4  0
M  CHG  1  21   1
M  END
>  <sample_id>  (278)
train::O=C(C[n+]1cc(-c2ccc(Cl)c(Cl)c2)n2c1CCC2)OCc1ccccc1__gen0001

>  <partition>  (278)
BAT_EXTERNAL_CONFIRM

>  <method>  (278)
BA_seed193

>  <candidate>  (278)
primary

$$$$
train::O=C(C[n+]1cc(-c2ccc(Cl)c(Cl)c2)n2c1CCC2)OCc1ccccc1__gen0002
     RDKit          3D

 46 49  0  0  0  0  0  0  0  0999 V2000
    0.1218    1.2280   -1.7405 O   0  0  0  0  0  0  0  0  0  0  0  0
    1.2813    0.9422   -1.9046 C   0  0  0  0  0  0  0  0  0  1  0  0
    2.2144    1.7135   -2.3914 O   0  0  0  0  0  0  0  0  0  2  0  0
    1.8557    3.0437   -2.7698 C   0  0  0  0  0  0  0  0  0  3  0  0
    1.5593    3.8956   -1.5611 C   0  0  0  0  0  0  0  0  0  4  0  0
    2.5428    4.1317   -0.6180 C   0  0  0  0  0  0  0  0  0  5  0  0
    3.5272    3.6987   -0.7623 H   0  0  0  0  0  0  0  0  0 14  0  0
    2.2764    4.8845    0.5117 C   0  0  0  0  0  0  0  0  0  6  0  0
    3.0531    5.0618    1.2355 H   0  0  0  0  0  0  0  0  0 13  0  0
    1.0123    5.4245    0.6977 C   0  0  0  0  0  0  0  0  0  7  0  0
    0.8056    6.0291    1.5648 H   0  0  0  0  0  0  0  0  0 12  0  0
    0.0131    5.1909   -0.2327 C   0  0  0  0  0  0  0  0  0  8  0  0
   -0.9610    5.6237   -0.1086 H   0  0  0  0  0  0  0  0  0 11  0  0
    0.2920    4.4288   -1.3640 C   0  0  0  0  0  0  0  0  0  9  0  0
   -0.4923    4.2484   -2.0963 H   0  0  0  0  0  0  0  0  0 10  0  0
    0.9923    3.0224   -3.4347 H   0  0  0  0  0  0  0  0  0 15  0  0
    2.7287    3.4145   -3.3082 H   0  0  0  0  0  0  0  0  0 16  0  0
    1.8266   -0.4433   -1.5507 C   0  0  0  0  0  0  0  0  0 17  0  0
    0.8296   -1.2109   -0.8585 N   0  0  0  0  0  0  0  0  0 18  0  0
   -0.4017   -1.4919   -1.2919 C   0  0  0  0  0  0  0  0  0 19  0  0
   -1.0738   -2.1050   -0.3138 N   0  0  0  0  0  0  0  0  0 20  0  0
   -0.2709   -2.2156    0.7960 C   0  0  0  0  0  0  0  0  0 21  0  0
   -0.6476   -2.7908    2.0752 C   0  0  0  0  0  0  0  0  0 24  0  0
   -0.0130   -2.3379    3.2373 C   0  0  0  0  0  0  0  0  0 25  0  0
    0.7380   -1.5569    3.1832 H   0  0  0  0  0  0  0  0  0 34  0  0
   -0.3224   -2.8743    4.4753 C   0  0  0  0  0  0  0  0  0 26  0  0
    0.4800   -2.2940    5.8752 Cl  0  0  0  0  0  0  0  0  0 33  0  0
   -1.2846   -3.8806    4.5675 C   0  0  0  0  0  0  0  0  0 27  0  0
   -1.6785   -4.5693    6.1038 Cl  0  0  0  0  0  0  0  0  0 32  0  0
   -1.9063   -4.3474    3.4238 C   0  0  0  0  0  0  0  0  0 28  0  0
   -2.6401   -5.1293    3.5086 H   0  0  0  0  0  0  0  0  0 31  0  0
   -1.5981   -3.8142    2.1856 C   0  0  0  0  0  0  0  0  0 29  0  0
   -2.1047   -4.1879    1.3170 H   0  0  0  0  0  0  0  0  0 30  0  0
    0.9159   -1.6360    0.4446 C   0  0  0  0  0  0  0  0  0 22  0  0
    1.8180   -1.5001    1.0079 H   0  0  0  0  0  0  0  0  0 23  0  0
   -2.4339   -2.4396   -0.6857 C   0  0  0  0  0  0  0  0  0 35  0  0
   -2.4932   -3.5106   -0.9081 H   0  0  0  0  0  0  0  0  0 36  0  0
   -3.1338   -2.1979    0.1131 H   0  0  0  0  0  0  0  0  0 37  0  0
   -2.6285   -1.5914   -1.9377 C   0  0  0  0  0  0  0  0  0 38  0  0
   -3.2817   -2.0840   -2.6691 H   0  0  0  0  0  0  0  0  0 39  0  0
   -3.0853   -0.6401   -1.6908 H   0  0  0  0  0  0  0  0  0 40  0  0
   -1.2202   -1.3591   -2.5139 C   0  0  0  0  0  0  0  0  0 41  0  0
   -0.9505   -2.1136   -3.2567 H   0  0  0  0  0  0  0  0  0 42  0  0
   -1.1143   -0.3726   -2.9653 H   0  0  0  0  0  0  0  0  0 43  0  0
    2.7123   -0.3420   -0.9130 H   0  0  0  0  0  0  0  0  0 44  0  0
    2.1401   -0.9459   -2.4766 H   0  0  0  0  0  0  0  0  0 45  0  0
  1  2  2  0
  2  3  1  0
  3  4  1  0
  4  5  1  0
  5  6  4  0
  6  7  1  0
  6  8  4  0
  8  9  1  0
  8 10  4  0
 10 11  1  0
 10 12  4  0
 12 13  1  0
 12 14  4  0
 14 15  1  0
  4 16  1  0
  4 17  1  0
  2 18  1  0
 18 19  1  0
 19 20  4  0
 20 21  4  0
 21 22  4  0
 22 23  1  0
 23 24  4  0
 24 25  1  0
 24 26  4  0
 26 27  1  0
 26 28  4  0
 28 29  1  0
 28 30  4  0
 30 31  1  0
 30 32  4  0
 32 33  1  0
 22 34  4  0
 34 35  1  0
 21 36  1  0
 36 37  1  0
 36 38  1  0
 36 39  1  0
 39 40  1  0
 39 41  1  0
 39 42  1  0
 42 43  1  0
 42 44  1  0
 18 45  1  0
 18 46  1  0
 14  5  4  0
 34 19  4  0
 42 20  1  0
 32 23  4  0
M  CHG  1  21   1
M  END
>  <sample_id>  (279)
train::O=C(C[n+]1cc(-c2ccc(Cl)c(Cl)c2)n2c1CCC2)OCc1ccccc1__gen0002

>  <partition>  (279)
BAT_EXTERNAL_CONFIRM

>  <method>  (279)
BA_seed193

>  <candidate>  (279)
primary

$$$$
train::CC(Cc1ccccc1)N1C(=O)c2ccccc2C1=O__gen0000
     RDKit          3D

 35 37  0  0  0  0  0  0  0  0999 V2000
    0.0987    1.8156   -0.9925 C   0  0  0  0  0  0  0  0  0  0  0  0
   -0.4281    1.4702   -1.8873 H   0  0  0  0  0  0  0  0  0  1  0  0
    1.0624    2.2342   -1.2837 H   0  0  0  0  0  0  0  0  0  2  0  0
    0.3092    0.6447   -0.0309 C   0  0  1  0  0  0  0  0  0  3  0  0
   -0.9647    0.1001    0.3838 N   0  0  0  0  0  0  0  0  0  4  0  0
   -1.3421    0.0764    1.7204 C   0  0  0  0  0  0  0  0  0  5  0  0
   -0.6817    0.5042    2.6405 O   0  0  0  0  0  0  0  0  0  6  0  0
   -2.6833   -0.5557    1.7489 C   0  0  0  0  0  0  0  0  0  7  0  0
   -3.5273   -0.8322    2.8125 C   0  0  0  0  0  0  0  0  0  8  0  0
   -3.2417   -0.5816    3.8180 H   0  0  0  0  0  0  0  0  0 18  0  0
   -4.7352   -1.4408    2.5253 C   0  0  0  0  0  0  0  0  0  9  0  0
   -5.4234   -1.6734    3.3229 H   0  0  0  0  0  0  0  0  0 17  0  0
   -5.0938   -1.7567    1.2140 C   0  0  0  0  0  0  0  0  0 10  0  0
   -6.0343   -2.2443    1.0271 H   0  0  0  0  0  0  0  0  0 16  0  0
   -4.2484   -1.4870    0.1523 C   0  0  0  0  0  0  0  0  0 11  0  0
   -4.5029   -1.7366   -0.8637 H   0  0  0  0  0  0  0  0  0 15  0  0
   -3.0389   -0.8687    0.4330 C   0  0  0  0  0  0  0  0  0 12  0  0
   -1.9153   -0.4631   -0.4517 C   0  0  0  0  0  0  0  0  0 13  0  0
   -1.8480   -0.5578   -1.6497 O   0  0  0  0  0  0  0  0  0 14  0  0
    0.7989    1.0061    0.8706 H   0  0  0  0  0  0  0  0  0 19  0  0
    1.1825   -0.4638   -0.6670 C   0  0  0  0  0  0  0  0  0 20  0  0
    2.5736    0.0096   -0.9140 C   0  0  0  0  0  0  0  0  0 21  0  0
    3.4686    0.1239    0.1427 C   0  0  0  0  0  0  0  0  0 22  0  0
    3.1693   -0.1827    1.1331 H   0  0  0  0  0  0  0  0  0 31  0  0
    4.7567    0.5913   -0.0639 C   0  0  0  0  0  0  0  0  0 23  0  0
    5.4430    0.6687    0.7680 H   0  0  0  0  0  0  0  0  0 30  0  0
    5.1534    0.9848   -1.3364 C   0  0  0  0  0  0  0  0  0 24  0  0
    6.1560    1.3446   -1.5022 H   0  0  0  0  0  0  0  0  0 29  0  0
    4.2655    0.8787   -2.3943 C   0  0  0  0  0  0  0  0  0 25  0  0
    4.5755    1.1774   -3.3863 H   0  0  0  0  0  0  0  0  0 28  0  0
    2.9839    0.4068   -2.1774 C   0  0  0  0  0  0  0  0  0 26  0  0
    2.2940    0.3246   -3.0113 H   0  0  0  0  0  0  0  0  0 27  0  0
    1.1894   -1.3196    0.0148 H   0  0  0  0  0  0  0  0  0 32  0  0
    0.7212   -0.7873   -1.6018 H   0  0  0  0  0  0  0  0  0 33  0  0
   -0.4929    2.5892   -0.5138 H   0  0  0  0  0  0  0  0  0 34  0  0
  1  2  1  0
  1  3  1  0
  1  4  1  0
  4  5  1  0
  5  6  1  0
  6  7  2  0
  6  8  1  0
  8  9  4  0
  9 10  1  0
  9 11  4  0
 11 12  1  0
 11 13  4  0
 13 14  1  0
 13 15  4  0
 15 16  1  0
 15 17  4  0
 17 18  1  0
 18 19  2  0
  4 20  1  1
  4 21  1  0
 21 22  1  0
 22 23  4  0
 23 24  1  0
 23 25  4  0
 25 26  1  0
 25 27  4  0
 27 28  1  0
 27 29  4  0
 29 30  1  0
 29 31  4  0
 31 32  1  0
 21 33  1  0
 21 34  1  0
  1 35  1  0
 18  5  1  0
 31 22  4  0
 17  8  4  0
M  END
>  <sample_id>  (280)
train::CC(Cc1ccccc1)N1C(=O)c2ccccc2C1=O__gen0000

>  <partition>  (280)
BAT_EXTERNAL_CONFIRM

>  <method>  (280)
BA_seed193

>  <candidate>  (280)
primary

$$$$
train::CC(Cc1ccccc1)N1C(=O)c2ccccc2C1=O__gen0001
     RDKit          3D

 35 37  0  0  0  0  0  0  0  0999 V2000
    1.0087    1.5512   -3.0906 C   0  0  0  0  0  0  0  0  0  0  0  0
   -0.0211    1.6765   -3.3995 H   0  0  0  0  0  0  0  0  0  1  0  0
    1.5879    1.1814   -3.9274 H   0  0  0  0  0  0  0  0  0  2  0  0
    1.0995    0.5580   -1.9399 C   0  0  1  0  0  0  0  0  0  3  0  0
    0.3471    1.0376   -0.7688 N   0  0  0  0  0  0  0  0  0  4  0  0
   -1.0054    1.3481   -0.7647 C   0  0  0  0  0  0  0  0  0  5  0  0
   -1.7115    1.4358   -1.7326 O   0  0  0  0  0  0  0  0  0  6  0  0
   -1.3468    1.5749    0.6608 C   0  0  0  0  0  0  0  0  0  7  0  0
   -2.5463    1.9187    1.2594 C   0  0  0  0  0  0  0  0  0  8  0  0
   -3.4285    2.0792    0.6551 H   0  0  0  0  0  0  0  0  0 18  0  0
   -2.5744    2.0257    2.6407 C   0  0  0  0  0  0  0  0  0  9  0  0
   -3.5001    2.2818    3.1282 H   0  0  0  0  0  0  0  0  0 17  0  0
   -1.4327    1.8001    3.4052 C   0  0  0  0  0  0  0  0  0 10  0  0
   -1.4880    1.8931    4.4718 H   0  0  0  0  0  0  0  0  0 16  0  0
   -0.2294    1.4759    2.7983 C   0  0  0  0  0  0  0  0  0 11  0  0
    0.6660    1.2933    3.3832 H   0  0  0  0  0  0  0  0  0 15  0  0
   -0.2002    1.3563    1.4224 C   0  0  0  0  0  0  0  0  0 12  0  0
    0.9086    1.0159    0.5024 C   0  0  0  0  0  0  0  0  0 13  0  0
    2.0570    0.7623    0.7540 O   0  0  0  0  0  0  0  0  0 14  0  0
    2.1263    0.4659   -1.5877 H   0  0  0  0  0  0  0  0  0 19  0  0
    0.5598   -0.8417   -2.3164 C   0  0  0  0  0  0  0  0  0 20  0  0
    0.5840   -1.7137   -1.1061 C   0  0  0  0  0  0  0  0  0 21  0  0
   -0.5585   -1.8613   -0.3074 C   0  0  0  0  0  0  0  0  0 22  0  0
   -1.4726   -1.3873   -0.6209 H   0  0  0  0  0  0  0  0  0 31  0  0
   -0.5092   -2.5912    0.8677 C   0  0  0  0  0  0  0  0  0 23  0  0
   -1.3953   -2.6806    1.4698 H   0  0  0  0  0  0  0  0  0 30  0  0
    0.6666   -3.2021    1.2653 C   0  0  0  0  0  0  0  0  0 24  0  0
    0.7061   -3.7660    2.1818 H   0  0  0  0  0  0  0  0  0 29  0  0
    1.8006   -3.0774    0.4802 C   0  0  0  0  0  0  0  0  0 25  0  0
    2.7298   -3.5455    0.7722 H   0  0  0  0  0  0  0  0  0 28  0  0
    1.7582   -2.3371   -0.6910 C   0  0  0  0  0  0  0  0  0 26  0  0
    2.6522   -2.2473   -1.3025 H   0  0  0  0  0  0  0  0  0 27  0  0
    1.2009   -1.2478   -3.0950 H   0  0  0  0  0  0  0  0  0 32  0  0
   -0.4575   -0.7444   -2.6879 H   0  0  0  0  0  0  0  0  0 33  0  0
    1.4184    2.5117   -2.7804 H   0  0  0  0  0  0  0  0  0 34  0  0
  1  2  1  0
  1  3  1  0
  1  4  1  0
  4  5  1  0
  5  6  1  0
  6  7  2  0
  6  8  1  0
  8  9  4  0
  9 10  1  0
  9 11  4  0
 11 12  1  0
 11 13  4  0
 13 14  1  0
 13 15  4  0
 15 16  1  0
 15 17  4  0
 17 18  1  0
 18 19  2  0
  4 20  1  1
  4 21  1  0
 21 22  1  0
 22 23  4  0
 23 24  1  0
 23 25  4  0
 25 26  1  0
 25 27  4  0
 27 28  1  0
 27 29  4  0
 29 30  1  0
 29 31  4  0
 31 32  1  0
 21 33  1  0
 21 34  1  0
  1 35  1  0
 18  5  1  0
 31 22  4  0
 17  8  4  0
M  END
>  <sample_id>  (281)
train::CC(Cc1ccccc1)N1C(=O)c2ccccc2C1=O__gen0001

>  <partition>  (281)
BAT_EXTERNAL_CONFIRM

>  <method>  (281)
BA_seed193

>  <candidate>  (281)
primary

$$$$
train::CC(Cc1ccccc1)N1C(=O)c2ccccc2C1=O__gen0002
     RDKit          3D

 35 37  0  0  0  0  0  0  0  0999 V2000
   -2.1777   -1.2063   -0.2849 C   0  0  0  0  0  0  0  0  0  0  0  0
   -2.1235   -1.8849   -1.1305 H   0  0  0  0  0  0  0  0  0  1  0  0
   -2.5987   -1.7471    0.5581 H   0  0  0  0  0  0  0  0  0  2  0  0
   -0.7798   -0.7137    0.0687 C   0  0  1  0  0  0  0  0  0  3  0  0
   -0.1619   -0.0523   -1.0810 N   0  0  0  0  0  0  0  0  0  4  0  0
    1.0646   -0.4840   -1.5957 C   0  0  0  0  0  0  0  0  0  5  0  0
    1.7113   -1.3916   -1.1396 O   0  0  0  0  0  0  0  0  0  6  0  0
    1.3420    0.3971   -2.7449 C   0  0  0  0  0  0  0  0  0  7  0  0
    2.4177    0.4187   -3.6218 C   0  0  0  0  0  0  0  0  0  8  0  0
    3.2232   -0.2855   -3.5207 H   0  0  0  0  0  0  0  0  0 18  0  0
    2.3886    1.3666   -4.6370 C   0  0  0  0  0  0  0  0  0  9  0  0
    3.2076    1.4303   -5.3322 H   0  0  0  0  0  0  0  0  0 17  0  0
    1.3354    2.2754   -4.7498 C   0  0  0  0  0  0  0  0  0 10  0  0
    1.3570    3.0142   -5.5360 H   0  0  0  0  0  0  0  0  0 16  0  0
    0.2758    2.2615   -3.8577 C   0  0  0  0  0  0  0  0  0 11  0  0
   -0.5439    2.9550   -3.9477 H   0  0  0  0  0  0  0  0  0 15  0  0
    0.2838    1.3023   -2.8659 C   0  0  0  0  0  0  0  0  0 12  0  0
   -0.6826    1.0203   -1.7706 C   0  0  0  0  0  0  0  0  0 13  0  0
   -1.7360    1.5670   -1.5469 O   0  0  0  0  0  0  0  0  0 14  0  0
   -0.1213   -1.5577    0.2757 H   0  0  0  0  0  0  0  0  0 19  0  0
   -0.8138    0.2538    1.2623 C   0  0  0  0  0  0  0  0  0 20  0  0
   -0.5112   -0.3667    2.6180 C   0  0  0  0  0  0  0  0  0 21  0  0
   -0.3732    0.4853    3.6956 C   0  0  0  0  0  0  0  0  0 22  0  0
   -0.4910    1.5568    3.5522 H   0  0  0  0  0  0  0  0  0 31  0  0
   -0.1112    0.0113    4.9805 C   0  0  0  0  0  0  0  0  0 23  0  0
   -0.0244    0.7125    5.7929 H   0  0  0  0  0  0  0  0  0 30  0  0
    0.0331   -1.3436    5.1838 C   0  0  0  0  0  0  0  0  0 24  0  0
    0.2441   -1.7146    6.1743 H   0  0  0  0  0  0  0  0  0 29  0  0
   -0.1137   -2.2160    4.1247 C   0  0  0  0  0  0  0  0  0 25  0  0
    0.0187   -3.2749    4.2719 H   0  0  0  0  0  0  0  0  0 28  0  0
   -0.3706   -1.7329    2.8459 C   0  0  0  0  0  0  0  0  0 26  0  0
   -0.4459   -2.4485    2.0407 H   0  0  0  0  0  0  0  0  0 27  0  0
   -0.0916    1.0647    1.0922 H   0  0  0  0  0  0  0  0  0 32  0  0
   -1.8084    0.7052    1.3526 H   0  0  0  0  0  0  0  0  0 33  0  0
   -2.8229   -0.3776   -0.5271 H   0  0  0  0  0  0  0  0  0 34  0  0
  1  2  1  0
  1  3  1  0
  1  4  1  0
  4  5  1  0
  5  6  1  0
  6  7  2  0
  6  8  1  0
  8  9  4  0
  9 10  1  0
  9 11  4  0
 11 12  1  0
 11 13  4  0
 13 14  1  0
 13 15  4  0
 15 16  1  0
 15 17  4  0
 17 18  1  0
 18 19  2  0
  4 20  1  1
  4 21  1  0
 21 22  1  0
 22 23  4  0
 23 24  1  0
 23 25  4  0
 25 26  1  0
 25 27  4  0
 27 28  1  0
 27 29  4  0
 29 30  1  0
 29 31  4  0
 31 32  1  0
 21 33  1  0
 21 34  1  0
  1 35  1  0
 18  5  1  0
 31 22  4  0
 17  8  4  0
M  END
>  <sample_id>  (282)
train::CC(Cc1ccccc1)N1C(=O)c2ccccc2C1=O__gen0002

>  <partition>  (282)
BAT_EXTERNAL_CONFIRM

>  <method>  (282)
BA_seed193

>  <candidate>  (282)
primary

$$$$
train::Clc1ccc(-c2n[nH]c3c2Cc2ccccc2-3)cc1Cl__gen0000
     RDKit          3D

 30 33  0  0  0  0  0  0  0  0999 V2000
   -0.4386   -0.5600    6.6576 Cl  0  0  0  0  0  0  0  0  0  0  0  0
   -0.5672   -0.2321    4.9708 C   0  0  0  0  0  0  0  0  0  1  0  0
    0.4069   -0.6980    4.0985 C   0  0  0  0  0  0  0  0  0  2  0  0
    1.2345   -1.2707    4.4967 H   0  0  0  0  0  0  0  0  0 29  0  0
    0.3065   -0.4623    2.7398 C   0  0  0  0  0  0  0  0  0  3  0  0
    1.0787   -0.8243    2.0847 H   0  0  0  0  0  0  0  0  0 28  0  0
   -0.7567    0.2660    2.2312 C   0  0  0  0  0  0  0  0  0  4  0  0
   -0.8868    0.5540    0.8061 C   0  0  0  0  0  0  0  0  0  9  0  0
   -1.8705    1.3214    0.3233 N   0  0  0  0  0  0  0  0  0 10  0  0
   -1.7296    1.3860   -0.9995 N   0  0  0  0  0  0  0  0  0 11  0  0
   -2.3767    1.9321   -1.5396 H   0  0  0  0  0  0  0  0  0 27  0  0
   -0.6425    0.6608   -1.4084 C   0  0  0  0  0  0  0  0  0 12  0  0
   -0.0853    0.1119   -0.2680 C   0  0  0  0  0  0  0  0  0 13  0  0
    1.1162   -0.7160   -0.6192 C   0  0  0  0  0  0  0  0  0 14  0  0
    2.0308   -0.3253   -0.1651 H   0  0  0  0  0  0  0  0  0 25  0  0
    0.9987   -1.7598   -0.3414 H   0  0  0  0  0  0  0  0  0 26  0  0
    1.1312   -0.5433   -2.1255 C   0  0  0  0  0  0  0  0  0 15  0  0
    2.0146   -1.0887   -3.0402 C   0  0  0  0  0  0  0  0  0 16  0  0
    2.8331   -1.7157   -2.7145 H   0  0  0  0  0  0  0  0  0 24  0  0
    1.8485   -0.7853   -4.3982 C   0  0  0  0  0  0  0  0  0 17  0  0
    2.5428   -1.1973   -5.1293 H   0  0  0  0  0  0  0  0  0 23  0  0
    0.8077    0.0209   -4.8382 C   0  0  0  0  0  0  0  0  0 18  0  0
    0.7058    0.2306   -5.8932 H   0  0  0  0  0  0  0  0  0 22  0  0
   -0.0844    0.5688   -3.9163 C   0  0  0  0  0  0  0  0  0 19  0  0
   -0.9028    1.2049   -4.2518 H   0  0  0  0  0  0  0  0  0 21  0  0
    0.0881    0.2789   -2.5716 C   0  0  0  0  0  0  0  0  0 20  0  0
   -1.7322    0.7487    3.1098 C   0  0  0  0  0  0  0  0  0  5  0  0
   -2.5648    1.3090    2.7174 H   0  0  0  0  0  0  0  0  0  8  0  0
   -1.6465    0.4932    4.4546 C   0  0  0  0  0  0  0  0  0  6  0  0
   -2.8596    1.0915    5.5296 Cl  0  0  0  0  0  0  0  0  0  7  0  0
  1  2  1  0
  2  3  4  0
  3  4  1  0
  3  5  4  0
  5  6  1  0
  5  7  4  0
  7  8  1  0
  8  9  4  0
  9 10  4  0
 10 11  1  0
 10 12  4  0
 12 13  4  0
 13 14  1  0
 14 15  1  0
 14 16  1  0
 14 17  1  0
 17 18  4  0
 18 19  1  0
 18 20  4  0
 20 21  1  0
 20 22  4  0
 22 23  1  0
 22 24  4  0
 24 25  1  0
 24 26  4  0
  7 27  4  0
 27 28  1  0
 27 29  4  0
 29 30  1  0
 29  2  4  0
 13  8  4  0
 26 17  4  0
 26 12  1  0
M  END
>  <sample_id>  (283)
train::Clc1ccc(-c2n[nH]c3c2Cc2ccccc2-3)cc1Cl__gen0000

>  <partition>  (283)
BAT_EXTERNAL_CONFIRM

>  <method>  (283)
BA_seed193

>  <candidate>  (283)
primary

$$$$
train::Clc1ccc(-c2n[nH]c3c2Cc2ccccc2-3)cc1Cl__gen0001
     RDKit          3D

 30 33  0  0  0  0  0  0  0  0999 V2000
   -5.2980    1.7237   -3.7113 Cl  0  0  0  0  0  0  0  0  0  0  0  0
   -3.9255    1.5681   -2.6693 C   0  0  0  0  0  0  0  0  0  1  0  0
   -3.5248    2.6442   -1.8962 C   0  0  0  0  0  0  0  0  0  2  0  0
   -4.0920    3.5663   -1.9426 H   0  0  0  0  0  0  0  0  0 29  0  0
   -2.4345    2.5327   -1.0547 C   0  0  0  0  0  0  0  0  0  3  0  0
   -2.1201    3.3614   -0.4491 H   0  0  0  0  0  0  0  0  0 28  0  0
   -1.7122    1.3447   -1.0004 C   0  0  0  0  0  0  0  0  0  4  0  0
   -0.5698    1.2343   -0.1150 C   0  0  0  0  0  0  0  0  0  9  0  0
   -0.0935    2.2852    0.5667 N   0  0  0  0  0  0  0  0  0 10  0  0
    0.9547    1.8672    1.2739 N   0  0  0  0  0  0  0  0  0 11  0  0
    1.4396    2.5249    1.8731 H   0  0  0  0  0  0  0  0  0 27  0  0
    1.1901    0.5368    1.0775 C   0  0  0  0  0  0  0  0  0 12  0  0
    0.2397    0.1082    0.1783 C   0  0  0  0  0  0  0  0  0 13  0  0
    0.4132   -1.3597   -0.0955 C   0  0  0  0  0  0  0  0  0 14  0  0
   -0.4706   -1.9426    0.1843 H   0  0  0  0  0  0  0  0  0 25  0  0
    0.6421   -1.5546   -1.1426 H   0  0  0  0  0  0  0  0  0 26  0  0
    1.5970   -1.6582    0.8065 C   0  0  0  0  0  0  0  0  0 15  0  0
    2.2469   -2.8739    1.0053 C   0  0  0  0  0  0  0  0  0 16  0  0
    1.9138   -3.7582    0.4937 H   0  0  0  0  0  0  0  0  0 24  0  0
    3.3288   -2.9247    1.8830 C   0  0  0  0  0  0  0  0  0 17  0  0
    3.8419   -3.8607    2.0352 H   0  0  0  0  0  0  0  0  0 23  0  0
    3.7639   -1.7807    2.5408 C   0  0  0  0  0  0  0  0  0 18  0  0
    4.6108   -1.8473    3.2107 H   0  0  0  0  0  0  0  0  0 22  0  0
    3.1292   -0.5663    2.3579 C   0  0  0  0  0  0  0  0  0 19  0  0
    3.4765    0.3291    2.8715 H   0  0  0  0  0  0  0  0  0 21  0  0
    2.0518   -0.5185    1.4870 C   0  0  0  0  0  0  0  0  0 20  0  0
   -2.1162    0.2616   -1.7895 C   0  0  0  0  0  0  0  0  0  5  0  0
   -1.5741   -0.6656   -1.7662 H   0  0  0  0  0  0  0  0  0  8  0  0
   -3.2185    0.3833   -2.6182 C   0  0  0  0  0  0  0  0  0  6  0  0
   -3.6902   -0.9606   -3.5948 Cl  0  0  0  0  0  0  0  0  0  7  0  0
  1  2  1  0
  2  3  4  0
  3  4  1  0
  3  5  4  0
  5  6  1  0
  5  7  4  0
  7  8  1  0
  8  9  4  0
  9 10  4  0
 10 11  1  0
 10 12  4  0
 12 13  4  0
 13 14  1  0
 14 15  1  0
 14 16  1  0
 14 17  1  0
 17 18  4  0
 18 19  1  0
 18 20  4  0
 20 21  1  0
 20 22  4  0
 22 23  1  0
 22 24  4  0
 24 25  1  0
 24 26  4  0
  7 27  4  0
 27 28  1  0
 27 29  4  0
 29 30  1  0
 29  2  4  0
 13  8  4  0
 26 17  4  0
 26 12  1  0
M  END
>  <sample_id>  (284)
train::Clc1ccc(-c2n[nH]c3c2Cc2ccccc2-3)cc1Cl__gen0001

>  <partition>  (284)
BAT_EXTERNAL_CONFIRM

>  <method>  (284)
BA_seed193

>  <candidate>  (284)
primary

$$$$
train::Clc1ccc(-c2n[nH]c3c2Cc2ccccc2-3)cc1Cl__gen0002
     RDKit          3D

 30 33  0  0  0  0  0  0  0  0999 V2000
   -6.5046   -1.4505    0.5936 Cl  0  0  0  0  0  0  0  0  0  0  0  0
   -4.8858   -0.8832    0.6558 C   0  0  0  0  0  0  0  0  0  1  0  0
   -3.9440   -1.3581   -0.2503 C   0  0  0  0  0  0  0  0  0  2  0  0
   -4.2586   -2.0744   -0.9846 H   0  0  0  0  0  0  0  0  0 29  0  0
   -2.6508   -0.8904   -0.2148 C   0  0  0  0  0  0  0  0  0  3  0  0
   -1.9285   -1.2709   -0.9286 H   0  0  0  0  0  0  0  0  0 28  0  0
   -2.2629    0.0458    0.7349 C   0  0  0  0  0  0  0  0  0  4  0  0
   -0.8915    0.5405    0.7976 C   0  0  0  0  0  0  0  0  0  9  0  0
   -0.5277    1.5244    1.6487 N   0  0  0  0  0  0  0  0  0 10  0  0
    0.7548    1.7593    1.4799 N   0  0  0  0  0  0  0  0  0 11  0  0
    1.2195    2.4647    2.0305 H   0  0  0  0  0  0  0  0  0 27  0  0
    1.2907    0.9415    0.5177 C   0  0  0  0  0  0  0  0  0 12  0  0
    0.2394    0.1636    0.0539 C   0  0  0  0  0  0  0  0  0 13  0  0
    0.7303   -0.7691   -1.0107 C   0  0  0  0  0  0  0  0  0 14  0  0
    0.5723   -1.8188   -0.7608 H   0  0  0  0  0  0  0  0  0 25  0  0
    0.2399   -0.5761   -1.9750 H   0  0  0  0  0  0  0  0  0 26  0  0
    2.2034   -0.3883   -1.0628 C   0  0  0  0  0  0  0  0  0 15  0  0
    3.2030   -0.9061   -1.8620 C   0  0  0  0  0  0  0  0  0 16  0  0
    2.9856   -1.7032   -2.5709 H   0  0  0  0  0  0  0  0  0 24  0  0
    4.4935   -0.4100   -1.7415 C   0  0  0  0  0  0  0  0  0 17  0  0
    5.2778   -0.8009   -2.3673 H   0  0  0  0  0  0  0  0  0 23  0  0
    4.7793    0.6214   -0.8435 C   0  0  0  0  0  0  0  0  0 18  0  0
    5.7912    0.9987   -0.7848 H   0  0  0  0  0  0  0  0  0 22  0  0
    3.7982    1.1568   -0.0344 C   0  0  0  0  0  0  0  0  0 19  0  0
    4.0047    1.9519    0.6540 H   0  0  0  0  0  0  0  0  0 21  0  0
    2.5071    0.6366   -0.1462 C   0  0  0  0  0  0  0  0  0 20  0  0
   -3.1939    0.5089    1.6466 C   0  0  0  0  0  0  0  0  0  5  0  0
   -2.8983    1.2492    2.3824 H   0  0  0  0  0  0  0  0  0  8  0  0
   -4.5038    0.0663    1.5945 C   0  0  0  0  0  0  0  0  0  6  0  0
   -5.6405    0.6705    2.7482 Cl  0  0  0  0  0  0  0  0  0  7  0  0
  1  2  1  0
  2  3  4  0
  3  4  1  0
  3  5  4  0
  5  6  1  0
  5  7  4  0
  7  8  1  0
  8  9  4  0
  9 10  4  0
 10 11  1  0
 10 12  4  0
 12 13  4  0
 13 14  1  0
 14 15  1  0
 14 16  1  0
 14 17  1  0
 17 18  4  0
 18 19  1  0
 18 20  4  0
 20 21  1  0
 20 22  4  0
 22 23  1  0
 22 24  4  0
 24 25  1  0
 24 26  4  0
  7 27  4  0
 27 28  1  0
 27 29  4  0
 29 30  1  0
 29  2  4  0
 13  8  4  0
 26 17  4  0
 26 12  1  0
M  END
>  <sample_id>  (285)
train::Clc1ccc(-c2n[nH]c3c2Cc2ccccc2-3)cc1Cl__gen0002

>  <partition>  (285)
BAT_EXTERNAL_CONFIRM

>  <method>  (285)
BA_seed193

>  <candidate>  (285)
primary

$$$$
train::COc1ccc(C(C)(C)C)cc1NC(=O)C1CC=CCC1C(=O)O__gen0000
     RDKit          3D

 49 50  0  0  0  0  0  0  0  0999 V2000
   -4.0248    0.2796    1.2943 C   0  0  0  0  0  0  0  0  0  0  0  0
   -4.0316   -0.2861    2.2391 H   0  0  0  0  0  0  0  0  0  1  0  0
   -2.7051    0.4382    0.8228 O   0  0  0  0  0  0  0  0  0  2  0  0
   -1.9945   -0.6895    0.4861 C   0  0  0  0  0  0  0  0  0  3  0  0
   -2.4597   -1.9911    0.5917 C   0  0  0  0  0  0  0  0  0  4  0  0
   -3.4403   -2.2063    0.9802 H   0  0  0  0  0  0  0  0  0 46  0  0
   -1.6443   -3.0504    0.2287 C   0  0  0  0  0  0  0  0  0  5  0  0
   -2.0272   -4.0478    0.3416 H   0  0  0  0  0  0  0  0  0 45  0  0
   -0.3619   -2.8666   -0.2528 C   0  0  0  0  0  0  0  0  0  6  0  0
    0.5054   -4.0232   -0.6893 C   0  0  1  0  0  0  0  0  0 32  0  0
    0.0478   -4.4794   -2.0770 C   0  0  0  0  0  0  0  0  0 33  0  0
    0.1260   -3.6603   -2.7953 H   0  0  0  0  0  0  0  0  0 34  0  0
    0.6700   -5.3085   -2.4297 H   0  0  0  0  0  0  0  0  0 35  0  0
   -0.9875   -4.8185   -2.0487 H   0  0  0  0  0  0  0  0  0 36  0  0
    1.9890   -3.6388   -0.7584 C   0  0  0  0  0  0  0  0  0 37  0  0
    2.1698   -2.9203   -1.5557 H   0  0  0  0  0  0  0  0  0 38  0  0
    2.5976   -4.5212   -0.9772 H   0  0  0  0  0  0  0  0  0 39  0  0
    2.3272   -3.2137    0.1776 H   0  0  0  0  0  0  0  0  0 40  0  0
    0.3807   -5.1987    0.3072 C   0  0  0  0  0  0  0  0  0 41  0  0
    0.6069   -4.8674    1.3075 H   0  0  0  0  0  0  0  0  0 42  0  0
   -0.6183   -5.6336    0.2827 H   0  0  0  0  0  0  0  0  0 43  0  0
    1.0811   -5.9852    0.0241 H   0  0  0  0  0  0  0  0  0 44  0  0
    0.0920   -1.5514   -0.3868 C   0  0  0  0  0  0  0  0  0  7  0  0
    1.0566   -1.3368   -0.7799 H   0  0  0  0  0  0  0  0  0 31  0  0
   -0.7076   -0.4682   -0.0206 C   0  0  0  0  0  0  0  0  0  8  0  0
   -0.2900    0.8581   -0.1194 N   0  0  0  0  0  0  0  0  0  9  0  0
    0.8914    1.3751   -0.5012 C   0  0  0  0  0  0  0  0  0 10  0  0
    1.8557    0.6983   -0.8383 O   0  0  0  0  0  0  0  0  0 11  0  0
    0.9934    2.8802   -0.4517 C   0  0  2  0  0  0  0  0  0 12  0  0
    1.8733    3.1457   -1.0403 H   0  0  0  0  0  0  0  0  0 13  0  0
    1.1822    3.3797    0.9915 C   0  0  1  0  0  0  0  0  0 14  0  0
    2.3942    2.8079    1.7340 C   0  0  0  0  0  0  0  0  0 25  0  0
    2.6259    3.1690    2.8638 O   0  0  0  0  0  0  0  0  0 26  0  0
    3.2364    1.9451    1.1523 O   0  0  0  0  0  0  0  0  0 27  0  0
    2.9319    1.6099    0.2866 H   0  0  0  0  0  0  0  0  0 28  0  0
    0.3084    3.0808    1.5671 H   0  0  0  0  0  0  0  0  0 29  0  0
    1.3986    4.9118    1.0015 C   0  0  0  0  0  0  0  0  0 15  0  0
    1.2228    5.2677    2.0276 H   0  0  0  0  0  0  0  0  0 23  0  0
    2.4269    5.1339    0.7676 H   0  0  0  0  0  0  0  0  0 24  0  0
    0.5204    5.6499    0.0553 C   0  0  0  0  0  0  0  0  0 16  0  0
    0.5057    6.7235    0.1840 H   0  0  0  0  0  0  0  0  0 22  0  0
   -0.1911    5.0467   -0.8664 C   0  0  0  0  0  0  0  0  0 17  0  0
   -0.8302    5.6264   -1.5422 H   0  0  0  0  0  0  0  0  0 21  0  0
   -0.2375    3.6027   -1.0882 C   0  0  0  0  0  0  0  0  0 18  0  0
   -1.1516    3.2152   -0.6337 H   0  0  0  0  0  0  0  0  0 19  0  0
   -0.2514    3.3664   -2.1449 H   0  0  0  0  0  0  0  0  0 20  0  0
   -1.0177    1.4855    0.2091 H   0  0  0  0  0  0  0  0  0 30  0  0
   -4.6683   -0.2192    0.5717 H   0  0  0  0  0  0  0  0  0 47  0  0
   -4.3765    1.2847    1.5020 H   0  0  0  0  0  0  0  0  0 48  0  0
  1  2  1  0
  1  3  1  0
  3  4  1  0
  4  5  4  0
  5  6  1  0
  5  7  4  0
  7  8  1  0
  7  9  4  0
  9 10  1  0
 10 11  1  6
 11 12  1  0
 11 13  1  0
 11 14  1  0
 10 15  1  0
 15 16  1  0
 15 17  1  0
 15 18  1  0
 10 19  1  0
 19 20  1  0
 19 21  1  0
 19 22  1  0
  9 23  4  0
 23 24  1  0
 23 25  4  0
 25 26  1  0
 26 27  1  0
 27 28  2  0
 27 29  1  0
 29 30  1  6
 29 31  1  0
 31 32  1  0
 32 33  2  0
 32 34  1  0
 34 35  1  0
 31 36  1  1
 31 37  1  0
 37 38  1  0
 37 39  1  0
 37 40  1  0
 40 41  1  0
 40 42  2  0
 42 43  1  0
 42 44  1  0
 44 45  1  0
 44 46  1  0
 26 47  1  0
  1 48  1  0
  1 49  1  0
 25  4  4  0
 44 29  1  0
M  END
>  <sample_id>  (286)
train::COc1ccc(C(C)(C)C)cc1NC(=O)C1CC=CCC1C(=O)O__gen0000

>  <partition>  (286)
BAT_EXTERNAL_CONFIRM

>  <method>  (286)
BA_seed193

>  <candidate>  (286)
primary

$$$$
train::COc1ccc(C(C)(C)C)cc1NC(=O)C1CC=CCC1C(=O)O__gen0001
     RDKit          3D

 49 50  0  0  0  0  0  0  0  0999 V2000
    3.0667   -0.5069   -3.5555 C   0  0  0  0  0  0  0  0  0  0  0  0
    3.7810    0.3050   -3.4120 H   0  0  0  0  0  0  0  0  0  1  0  0
    1.9647   -0.3735   -2.6911 O   0  0  0  0  0  0  0  0  0  2  0  0
    2.1958   -0.3997   -1.3316 C   0  0  0  0  0  0  0  0  0  3  0  0
    3.4352   -0.5544   -0.7264 C   0  0  0  0  0  0  0  0  0  4  0  0
    4.3319   -0.6602   -1.3287 H   0  0  0  0  0  0  0  0  0 46  0  0
    3.5424   -0.5910    0.6487 C   0  0  0  0  0  0  0  0  0  5  0  0
    4.5260   -0.7178    1.0629 H   0  0  0  0  0  0  0  0  0 45  0  0
    2.4308   -0.4598    1.4693 C   0  0  0  0  0  0  0  0  0  6  0  0
    2.5857   -0.5136    2.9934 C   0  0  1  0  0  0  0  0  0 32  0  0
    3.2030   -1.8633    3.3853 C   0  0  0  0  0  0  0  0  0 33  0  0
    4.1602   -1.9994    2.9082 H   0  0  0  0  0  0  0  0  0 34  0  0
    2.5452   -2.6743    3.0766 H   0  0  0  0  0  0  0  0  0 35  0  0
    3.3559   -1.9069    4.4678 H   0  0  0  0  0  0  0  0  0 36  0  0
    3.4883    0.6316    3.4272 C   0  0  0  0  0  0  0  0  0 37  0  0
    3.0649    1.5986    3.1437 H   0  0  0  0  0  0  0  0  0 38  0  0
    4.4818    0.5697    2.9820 H   0  0  0  0  0  0  0  0  0 39  0  0
    3.6164    0.6316    4.5087 H   0  0  0  0  0  0  0  0  0 40  0  0
    1.2559   -0.3608    3.7217 C   0  0  0  0  0  0  0  0  0 41  0  0
    1.4221   -0.4040    4.8021 H   0  0  0  0  0  0  0  0  0 42  0  0
    0.5636   -1.1600    3.4547 H   0  0  0  0  0  0  0  0  0 43  0  0
    0.7841    0.5955    3.4986 H   0  0  0  0  0  0  0  0  0 44  0  0
    1.1837   -0.3211    0.8683 C   0  0  0  0  0  0  0  0  0  7  0  0
    0.2931   -0.1969    1.4471 H   0  0  0  0  0  0  0  0  0 31  0  0
    1.0585   -0.2902   -0.5144 C   0  0  0  0  0  0  0  0  0  8  0  0
   -0.1595   -0.1295   -1.1623 N   0  0  0  0  0  0  0  0  0  9  0  0
   -1.4174   -0.1735   -0.6530 C   0  0  0  0  0  0  0  0  0 10  0  0
   -1.6802   -0.3690    0.5078 O   0  0  0  0  0  0  0  0  0 11  0  0
   -2.4806    0.0576   -1.7355 C   0  0  1  0  0  0  0  0  0 12  0  0
   -2.2834   -0.6462   -2.5551 H   0  0  0  0  0  0  0  0  0 13  0  0
   -3.8896   -0.2289   -1.1802 C   0  0  2  0  0  0  0  0  0 14  0  0
   -4.9332   -0.2009   -2.2654 C   0  0  0  0  0  0  0  0  0 25  0  0
   -4.8434    0.3287   -3.3501 O   0  0  0  0  0  0  0  0  0 26  0  0
   -6.0165   -0.8878   -1.9073 O   0  0  0  0  0  0  0  0  0 27  0  0
   -6.7045   -0.8312   -2.5917 H   0  0  0  0  0  0  0  0  0 28  0  0
   -3.9044   -1.2399   -0.7605 H   0  0  0  0  0  0  0  0  0 29  0  0
   -4.2639    0.7793   -0.0794 C   0  0  0  0  0  0  0  0  0 15  0  0
   -5.3442    0.7258    0.1137 H   0  0  0  0  0  0  0  0  0 23  0  0
   -3.7479    0.4864    0.8288 H   0  0  0  0  0  0  0  0  0 24  0  0
   -3.8856    2.1782   -0.4385 C   0  0  0  0  0  0  0  0  0 16  0  0
   -4.3454    2.9562    0.1581 H   0  0  0  0  0  0  0  0  0 22  0  0
   -3.0786    2.4932   -1.4192 C   0  0  0  0  0  0  0  0  0 17  0  0
   -2.8340    3.5336   -1.6286 H   0  0  0  0  0  0  0  0  0 21  0  0
   -2.3991    1.4883   -2.2939 C   0  0  0  0  0  0  0  0  0 18  0  0
   -1.3636    1.7678   -2.4818 H   0  0  0  0  0  0  0  0  0 19  0  0
   -2.9122    1.5089   -3.2673 H   0  0  0  0  0  0  0  0  0 20  0  0
   -0.0699   -0.0569   -2.1692 H   0  0  0  0  0  0  0  0  0 30  0  0
    3.5692   -1.4715   -3.4127 H   0  0  0  0  0  0  0  0  0 47  0  0
    2.6509   -0.4465   -4.5634 H   0  0  0  0  0  0  0  0  0 48  0  0
  1  2  1  0
  1  3  1  0
  3  4  1  0
  4  5  4  0
  5  6  1  0
  5  7  4  0
  7  8  1  0
  7  9  4  0
  9 10  1  0
 10 11  1  6
 11 12  1  0
 11 13  1  0
 11 14  1  0
 10 15  1  0
 15 16  1  0
 15 17  1  0
 15 18  1  0
 10 19  1  0
 19 20  1  0
 19 21  1  0
 19 22  1  0
  9 23  4  0
 23 24  1  0
 23 25  4  0
 25 26  1  0
 26 27  1  0
 27 28  2  0
 27 29  1  0
 29 30  1  1
 29 31  1  0
 31 32  1  0
 32 33  2  0
 32 34  1  0
 34 35  1  0
 31 36  1  6
 31 37  1  0
 37 38  1  0
 37 39  1  0
 37 40  1  0
 40 41  1  0
 40 42  2  0
 42 43  1  0
 42 44  1  0
 44 45  1  0
 44 46  1  0
 26 47  1  0
  1 48  1  0
  1 49  1  0
 25  4  4  0
 44 29  1  0
M  END
>  <sample_id>  (287)
train::COc1ccc(C(C)(C)C)cc1NC(=O)C1CC=CCC1C(=O)O__gen0001

>  <partition>  (287)
BAT_EXTERNAL_CONFIRM

>  <method>  (287)
BA_seed193

>  <candidate>  (287)
primary

$$$$
train::COc1ccc(C(C)(C)C)cc1NC(=O)C1CC=CCC1C(=O)O__gen0002
     RDKit          3D

 49 50  0  0  0  0  0  0  0  0999 V2000
    4.4575   -0.1298   -0.3268 C   0  0  0  0  0  0  0  0  0  0  0  0
    4.9113   -0.5565    0.5701 H   0  0  0  0  0  0  0  0  0  1  0  0
    3.0691   -0.3504   -0.3697 O   0  0  0  0  0  0  0  0  0  2  0  0
    2.2892    0.1550    0.6468 C   0  0  0  0  0  0  0  0  0  3  0  0
    2.7622    0.8892    1.7302 C   0  0  0  0  0  0  0  0  0  4  0  0
    3.8151    1.1066    1.8360 H   0  0  0  0  0  0  0  0  0 46  0  0
    1.8873    1.3606    2.6820 C   0  0  0  0  0  0  0  0  0  5  0  0
    2.2981    1.9187    3.5083 H   0  0  0  0  0  0  0  0  0 45  0  0
    0.5223    1.1165    2.6024 C   0  0  0  0  0  0  0  0  0  6  0  0
   -0.4759    1.6243    3.6397 C   0  0  1  0  0  0  0  0  0 32  0  0
    0.2098    2.3858    4.7787 C   0  0  0  0  0  0  0  0  0 33  0  0
   -0.5471    2.7065    5.5000 H   0  0  0  0  0  0  0  0  0 34  0  0
    0.9153    1.7402    5.3086 H   0  0  0  0  0  0  0  0  0 35  0  0
    0.7060    3.2734    4.4079 H   0  0  0  0  0  0  0  0  0 36  0  0
   -1.4852    2.5451    2.9571 C   0  0  0  0  0  0  0  0  0 37  0  0
   -0.9883    3.3865    2.4847 H   0  0  0  0  0  0  0  0  0 38  0  0
   -2.0377    2.0118    2.1899 H   0  0  0  0  0  0  0  0  0 39  0  0
   -2.1933    2.9342    3.6819 H   0  0  0  0  0  0  0  0  0 40  0  0
   -1.2224    0.4145    4.2385 C   0  0  0  0  0  0  0  0  0 41  0  0
   -1.7703   -0.1242    3.4617 H   0  0  0  0  0  0  0  0  0 42  0  0
   -1.9517    0.7509    4.9770 H   0  0  0  0  0  0  0  0  0 43  0  0
   -0.5237   -0.2670    4.7121 H   0  0  0  0  0  0  0  0  0 44  0  0
    0.0532    0.3869    1.5225 C   0  0  0  0  0  0  0  0  0  7  0  0
   -0.9932    0.1744    1.4108 H   0  0  0  0  0  0  0  0  0 31  0  0
    0.9112   -0.0980    0.5473 C   0  0  0  0  0  0  0  0  0  8  0  0
    0.4952   -0.8390   -0.5602 N   0  0  0  0  0  0  0  0  0  9  0  0
   -0.7589   -1.1860   -0.9539 C   0  0  0  0  0  0  0  0  0 10  0  0
   -1.7616   -0.9160   -0.3259 O   0  0  0  0  0  0  0  0  0 11  0  0
   -0.7650   -1.9495   -2.2688 C   0  0  2  0  0  0  0  0  0 12  0  0
   -0.0991   -2.8166   -2.1683 H   0  0  0  0  0  0  0  0  0 13  0  0
   -0.2272   -1.0683   -3.4123 C   0  0  1  0  0  0  0  0  0 14  0  0
   -0.0174   -1.7894   -4.7299 C   0  0  0  0  0  0  0  0  0 25  0  0
    0.4099   -1.2286   -5.7047 O   0  0  0  0  0  0  0  0  0 26  0  0
   -0.2877   -3.0804   -4.7180 O   0  0  0  0  0  0  0  0  0 27  0  0
   -0.1532   -3.4627   -5.6039 H   0  0  0  0  0  0  0  0  0 28  0  0
    0.7549   -0.6774   -3.1351 H   0  0  0  0  0  0  0  0  0 29  0  0
   -1.1478    0.1325   -3.6285 C   0  0  0  0  0  0  0  0  0 15  0  0
   -0.8906    0.6124   -4.5859 H   0  0  0  0  0  0  0  0  0 23  0  0
   -0.9548    0.8751   -2.8562 H   0  0  0  0  0  0  0  0  0 24  0  0
   -2.6020   -0.2278   -3.6048 C   0  0  0  0  0  0  0  0  0 16  0  0
   -3.2676    0.5291   -3.9773 H   0  0  0  0  0  0  0  0  0 22  0  0
   -3.0641   -1.3671   -3.1167 C   0  0  0  0  0  0  0  0  0 17  0  0
   -4.1256   -1.5598   -3.1298 H   0  0  0  0  0  0  0  0  0 21  0  0
   -2.1915   -2.4478   -2.5688 C   0  0  0  0  0  0  0  0  0 18  0  0
   -2.1483   -3.2740   -3.2822 H   0  0  0  0  0  0  0  0  0 19  0  0
   -2.6427   -2.8150   -1.6435 H   0  0  0  0  0  0  0  0  0 20  0  0
    1.2783   -1.1424   -1.1414 H   0  0  0  0  0  0  0  0  0 30  0  0
    4.8645   -0.6043   -1.2165 H   0  0  0  0  0  0  0  0  0 47  0  0
    4.6835    0.9479   -0.3653 H   0  0  0  0  0  0  0  0  0 48  0  0
  1  2  1  0
  1  3  1  0
  3  4  1  0
  4  5  4  0
  5  6  1  0
  5  7  4  0
  7  8  1  0
  7  9  4  0
  9 10  1  0
 10 11  1  1
 11 12  1  0
 11 13  1  0
 11 14  1  0
 10 15  1  0
 15 16  1  0
 15 17  1  0
 15 18  1  0
 10 19  1  0
 19 20  1  0
 19 21  1  0
 19 22  1  0
  9 23  4  0
 23 24  1  0
 23 25  4  0
 25 26  1  0
 26 27  1  0
 27 28  2  0
 27 29  1  0
 29 30  1  1
 29 31  1  0
 31 32  1  0
 32 33  2  0
 32 34  1  0
 34 35  1  0
 31 36  1  1
 31 37  1  0
 37 38  1  0
 37 39  1  0
 37 40  1  0
 40 41  1  0
 40 42  2  0
 42 43  1  0
 42 44  1  0
 44 45  1  0
 44 46  1  0
 26 47  1  0
  1 48  1  0
  1 49  1  0
 25  4  4  0
 44 29  1  0
M  END
>  <sample_id>  (288)
train::COc1ccc(C(C)(C)C)cc1NC(=O)C1CC=CCC1C(=O)O__gen0002

>  <partition>  (288)
BAT_EXTERNAL_CONFIRM

>  <method>  (288)
BA_seed193

>  <candidate>  (288)
primary

$$$$
train::O=C(Nc1ccc(Cl)c(Cl)c1)Oc1ccc(NC(=O)c2ccco2)cc1__gen0000
     RDKit          3D

 38 40  0  0  0  0  0  0  0  0999 V2000
    0.3202   -0.7148    4.9488 O   0  0  0  0  0  0  0  0  0  0  0  0
    0.2238   -0.4529    3.7824 C   0  0  0  0  0  0  0  0  0  1  0  0
    0.9034   -1.0527    2.7680 N   0  0  0  0  0  0  0  0  0  2  0  0
    1.8119   -2.1056    2.8299 C   0  0  0  0  0  0  0  0  0  3  0  0
    2.1775   -2.7254    4.0278 C   0  0  0  0  0  0  0  0  0  4  0  0
    1.7446   -2.3781    4.9577 H   0  0  0  0  0  0  0  0  0 13  0  0
    3.0778   -3.7692    4.0246 C   0  0  0  0  0  0  0  0  0  5  0  0
    3.3522   -4.2355    4.9512 H   0  0  0  0  0  0  0  0  0 12  0  0
    3.6502   -4.2061    2.8449 C   0  0  0  0  0  0  0  0  0  6  0  0
    4.7720   -5.5143    2.8638 Cl  0  0  0  0  0  0  0  0  0 11  0  0
    3.2855   -3.6095    1.6460 C   0  0  0  0  0  0  0  0  0  7  0  0
    3.9712   -4.1451    0.1546 Cl  0  0  0  0  0  0  0  0  0 10  0  0
    2.3771   -2.5640    1.6436 C   0  0  0  0  0  0  0  0  0  8  0  0
    2.1168   -2.0960    0.7015 H   0  0  0  0  0  0  0  0  0  9  0  0
    0.7231   -0.7028    1.8239 H   0  0  0  0  0  0  0  0  0 14  0  0
   -0.6172    0.5345    3.3979 O   0  0  0  0  0  0  0  0  0 15  0  0
   -0.8372    0.8062    2.0336 C   0  0  0  0  0  0  0  0  0 16  0  0
   -1.7608    0.0452    1.3255 C   0  0  0  0  0  0  0  0  0 17  0  0
   -2.2811   -0.7523    1.8302 H   0  0  0  0  0  0  0  0  0 37  0  0
   -2.0211    0.3381    0.0092 C   0  0  0  0  0  0  0  0  0 18  0  0
   -2.7351   -0.2501   -0.5509 H   0  0  0  0  0  0  0  0  0 36  0  0
   -1.3432    1.3777   -0.6398 C   0  0  0  0  0  0  0  0  0 19  0  0
   -1.6209    1.6176   -1.9745 N   0  0  0  0  0  0  0  0  0 24  0  0
   -1.0996    2.5543   -2.8152 C   0  0  0  0  0  0  0  0  0 25  0  0
   -0.2246    3.3550   -2.5272 O   0  0  0  0  0  0  0  0  0 26  0  0
   -1.6741    2.4847   -4.1665 C   0  0  0  0  0  0  0  0  0 27  0  0
   -1.4037    3.2522   -5.2774 C   0  0  0  0  0  0  0  0  0 28  0  0
   -0.6849    4.0594   -5.3153 H   0  0  0  0  0  0  0  0  0 34  0  0
   -2.2479    2.7874   -6.3038 C   0  0  0  0  0  0  0  0  0 29  0  0
   -2.2966    3.1412   -7.3110 H   0  0  0  0  0  0  0  0  0 33  0  0
   -2.9685    1.7726   -5.7559 C   0  0  0  0  0  0  0  0  0 30  0  0
   -3.7233    1.1283   -6.1615 H   0  0  0  0  0  0  0  0  0 32  0  0
   -2.6368    1.5830   -4.4700 O   0  0  0  0  0  0  0  0  0 31  0  0
   -2.3466    1.0227   -2.3765 H   0  0  0  0  0  0  0  0  0 35  0  0
   -0.4371    2.1499    0.0872 C   0  0  0  0  0  0  0  0  0 20  0  0
    0.0833    2.9642   -0.3910 H   0  0  0  0  0  0  0  0  0 23  0  0
   -0.1719    1.8542    1.4090 C   0  0  0  0  0  0  0  0  0 21  0  0
    0.5413    2.4463    1.9753 H   0  0  0  0  0  0  0  0  0 22  0  0
  1  2  2  0
  2  3  1  0
  3  4  1  0
  4  5  4  0
  5  6  1  0
  5  7  4  0
  7  8  1  0
  7  9  4  0
  9 10  1  0
  9 11  4  0
 11 12  1  0
 11 13  4  0
 13 14  1  0
  3 15  1  0
  2 16  1  0
 16 17  1  0
 17 18  4  0
 18 19  1  0
 18 20  4  0
 20 21  1  0
 20 22  4  0
 22 23  1  0
 23 24  1  0
 24 25  2  0
 24 26  1  0
 26 27  4  0
 27 28  1  0
 27 29  4  0
 29 30  1  0
 29 31  4  0
 31 32  1  0
 31 33  4  0
 23 34  1  0
 22 35  4  0
 35 36  1  0
 35 37  4  0
 37 38  1  0
 13  4  4  0
 37 17  4  0
 33 26  4  0
M  END
>  <sample_id>  (289)
train::O=C(Nc1ccc(Cl)c(Cl)c1)Oc1ccc(NC(=O)c2ccco2)cc1__gen0000

>  <partition>  (289)
BAT_EXTERNAL_CONFIRM

>  <method>  (289)
BA_seed193

>  <candidate>  (289)
primary

$$$$
train::O=C(Nc1ccc(Cl)c(Cl)c1)Oc1ccc(NC(=O)c2ccco2)cc1__gen0001
     RDKit          3D

 38 40  0  0  0  0  0  0  0  0999 V2000
    1.4379    2.0393    3.6179 O   0  0  0  0  0  0  0  0  0  0  0  0
    1.0777    1.5596    2.5824 C   0  0  0  0  0  0  0  0  0  1  0  0
    1.0440    0.2112    2.2830 N   0  0  0  0  0  0  0  0  0  2  0  0
    1.4258   -0.8452    3.0765 C   0  0  0  0  0  0  0  0  0  3  0  0
    1.9738   -0.6951    4.3569 C   0  0  0  0  0  0  0  0  0  4  0  0
    2.0857    0.2909    4.7680 H   0  0  0  0  0  0  0  0  0 13  0  0
    2.3433   -1.8040    5.0872 C   0  0  0  0  0  0  0  0  0  5  0  0
    2.7519   -1.6780    6.0730 H   0  0  0  0  0  0  0  0  0 12  0  0
    2.2054   -3.0746    4.5669 C   0  0  0  0  0  0  0  0  0  6  0  0
    2.6771   -4.4396    5.4878 Cl  0  0  0  0  0  0  0  0  0 11  0  0
    1.6763   -3.2469    3.2887 C   0  0  0  0  0  0  0  0  0  7  0  0
    1.4999   -4.8112    2.6054 Cl  0  0  0  0  0  0  0  0  0 10  0  0
    1.3054   -2.1348    2.5491 C   0  0  0  0  0  0  0  0  0  8  0  0
    0.8918   -2.2706    1.5594 H   0  0  0  0  0  0  0  0  0  9  0  0
    0.6421   -0.0295    1.3888 H   0  0  0  0  0  0  0  0  0 14  0  0
    0.6210    2.3837    1.5941 O   0  0  0  0  0  0  0  0  0 15  0  0
    0.4976    1.9724    0.2762 C   0  0  0  0  0  0  0  0  0 16  0  0
    1.5226    1.3329   -0.4148 C   0  0  0  0  0  0  0  0  0 17  0  0
    2.4468    1.0923    0.1029 H   0  0  0  0  0  0  0  0  0 37  0  0
    1.3650    1.0201   -1.7429 C   0  0  0  0  0  0  0  0  0 18  0  0
    2.1610    0.5310   -2.2816 H   0  0  0  0  0  0  0  0  0 36  0  0
    0.1979    1.3513   -2.4184 C   0  0  0  0  0  0  0  0  0 19  0  0
    0.0749    1.0305   -3.7763 N   0  0  0  0  0  0  0  0  0 24  0  0
   -1.0303    0.7279   -4.5286 C   0  0  0  0  0  0  0  0  0 25  0  0
   -0.9842    0.7728   -5.7364 O   0  0  0  0  0  0  0  0  0 26  0  0
   -2.2052    0.2399   -3.8162 C   0  0  0  0  0  0  0  0  0 27  0  0
   -3.5093    0.1993   -4.2574 C   0  0  0  0  0  0  0  0  0 28  0  0
   -3.8541    0.5651   -5.2001 H   0  0  0  0  0  0  0  0  0 34  0  0
   -4.2757   -0.3663   -3.2163 C   0  0  0  0  0  0  0  0  0 29  0  0
   -5.3302   -0.5404   -3.2112 H   0  0  0  0  0  0  0  0  0 33  0  0
   -3.3904   -0.6609   -2.2285 C   0  0  0  0  0  0  0  0  0 30  0  0
   -3.5185   -1.1071   -1.2542 H   0  0  0  0  0  0  0  0  0 32  0  0
   -2.1454   -0.2982   -2.5637 O   0  0  0  0  0  0  0  0  0 31  0  0
    0.9280    1.1092   -4.3321 H   0  0  0  0  0  0  0  0  0 35  0  0
   -0.8150    2.0237   -1.7350 C   0  0  0  0  0  0  0  0  0 20  0  0
   -1.7020    2.3368   -2.2590 H   0  0  0  0  0  0  0  0  0 23  0  0
   -0.6569    2.3396   -0.4066 C   0  0  0  0  0  0  0  0  0 21  0  0
   -1.4356    2.8731    0.1152 H   0  0  0  0  0  0  0  0  0 22  0  0
  1  2  2  0
  2  3  1  0
  3  4  1  0
  4  5  4  0
  5  6  1  0
  5  7  4  0
  7  8  1  0
  7  9  4  0
  9 10  1  0
  9 11  4  0
 11 12  1  0
 11 13  4  0
 13 14  1  0
  3 15  1  0
  2 16  1  0
 16 17  1  0
 17 18  4  0
 18 19  1  0
 18 20  4  0
 20 21  1  0
 20 22  4  0
 22 23  1  0
 23 24  1  0
 24 25  2  0
 24 26  1  0
 26 27  4  0
 27 28  1  0
 27 29  4  0
 29 30  1  0
 29 31  4  0
 31 32  1  0
 31 33  4  0
 23 34  1  0
 22 35  4  0
 35 36  1  0
 35 37  4  0
 37 38  1  0
 13  4  4  0
 37 17  4  0
 33 26  4  0
M  END
>  <sample_id>  (290)
train::O=C(Nc1ccc(Cl)c(Cl)c1)Oc1ccc(NC(=O)c2ccco2)cc1__gen0001

>  <partition>  (290)
BAT_EXTERNAL_CONFIRM

>  <method>  (290)
BA_seed193

>  <candidate>  (290)
primary

$$$$
train::O=C(Nc1ccc(Cl)c(Cl)c1)Oc1ccc(NC(=O)c2ccco2)cc1__gen0002
     RDKit          3D

 38 40  0  0  0  0  0  0  0  0999 V2000
   -2.0225   -1.7124   -5.1032 O   0  0  0  0  0  0  0  0  0  0  0  0
   -1.3288   -1.5302   -4.1418 C   0  0  0  0  0  0  0  0  0  1  0  0
   -1.0479   -2.5769   -3.2731 N   0  0  0  0  0  0  0  0  0  2  0  0
   -0.0902   -2.6672   -2.2768 C   0  0  0  0  0  0  0  0  0  3  0  0
    1.1734   -2.0952   -2.4295 C   0  0  0  0  0  0  0  0  0  4  0  0
    1.4278   -1.5808   -3.3289 H   0  0  0  0  0  0  0  0  0 13  0  0
    2.0882   -2.1743   -1.4042 C   0  0  0  0  0  0  0  0  0  5  0  0
    3.0711   -1.7294   -1.5029 H   0  0  0  0  0  0  0  0  0 12  0  0
    1.7768   -2.8414   -0.2264 C   0  0  0  0  0  0  0  0  0  6  0  0
    2.9424   -2.9368    1.0415 Cl  0  0  0  0  0  0  0  0  0 11  0  0
    0.5320   -3.4489   -0.0848 C   0  0  0  0  0  0  0  0  0  7  0  0
    0.1306   -4.3133    1.3433 Cl  0  0  0  0  0  0  0  0  0 10  0  0
   -0.3840   -3.3702   -1.1185 C   0  0  0  0  0  0  0  0  0  8  0  0
   -1.3620   -3.8262   -0.9945 H   0  0  0  0  0  0  0  0  0  9  0  0
   -1.6518   -3.3768   -3.4220 H   0  0  0  0  0  0  0  0  0 14  0  0
   -0.7596   -0.3473   -3.8939 O   0  0  0  0  0  0  0  0  0 15  0  0
   -0.6242    0.1682   -2.6031 C   0  0  0  0  0  0  0  0  0 16  0  0
    0.4525    1.0071   -2.3612 C   0  0  0  0  0  0  0  0  0 17  0  0
    1.1363    1.2310   -3.1656 H   0  0  0  0  0  0  0  0  0 37  0  0
    0.6149    1.5685   -1.1095 C   0  0  0  0  0  0  0  0  0 18  0  0
    1.4489    2.2190   -0.9107 H   0  0  0  0  0  0  0  0  0 36  0  0
   -0.2868    1.2713   -0.0747 C   0  0  0  0  0  0  0  0  0 19  0  0
   -0.0658    1.8558    1.1587 N   0  0  0  0  0  0  0  0  0 24  0  0
   -0.8063    1.7214    2.3233 C   0  0  0  0  0  0  0  0  0 25  0  0
   -1.8140    1.0662    2.4459 O   0  0  0  0  0  0  0  0  0 26  0  0
   -0.2225    2.5100    3.4244 C   0  0  0  0  0  0  0  0  0 27  0  0
   -0.6817    2.6533    4.7249 C   0  0  0  0  0  0  0  0  0 28  0  0
   -1.5574    2.1820    5.1252 H   0  0  0  0  0  0  0  0  0 34  0  0
    0.2305    3.4999    5.3635 C   0  0  0  0  0  0  0  0  0 29  0  0
    0.1866    3.8362    6.3850 H   0  0  0  0  0  0  0  0  0 33  0  0
    1.1685    3.8283    4.4323 C   0  0  0  0  0  0  0  0  0 30  0  0
    2.0413    4.4443    4.4713 H   0  0  0  0  0  0  0  0  0 32  0  0
    0.9025    3.2370    3.2598 O   0  0  0  0  0  0  0  0  0 31  0  0
    0.7625    2.4318    1.2207 H   0  0  0  0  0  0  0  0  0 35  0  0
   -1.3793    0.4393   -0.3400 C   0  0  0  0  0  0  0  0  0 20  0  0
   -2.0832    0.2226    0.4457 H   0  0  0  0  0  0  0  0  0 23  0  0
   -1.5361   -0.1141   -1.5957 C   0  0  0  0  0  0  0  0  0 21  0  0
   -2.3824   -0.7517   -1.8045 H   0  0  0  0  0  0  0  0  0 22  0  0
  1  2  2  0
  2  3  1  0
  3  4  1  0
  4  5  4  0
  5  6  1  0
  5  7  4  0
  7  8  1  0
  7  9  4  0
  9 10  1  0
  9 11  4  0
 11 12  1  0
 11 13  4  0
 13 14  1  0
  3 15  1  0
  2 16  1  0
 16 17  1  0
 17 18  4  0
 18 19  1  0
 18 20  4  0
 20 21  1  0
 20 22  4  0
 22 23  1  0
 23 24  1  0
 24 25  2  0
 24 26  1  0
 26 27  4  0
 27 28  1  0
 27 29  4  0
 29 30  1  0
 29 31  4  0
 31 32  1  0
 31 33  4  0
 23 34  1  0
 22 35  4  0
 35 36  1  0
 35 37  4  0
 37 38  1  0
 13  4  4  0
 37 17  4  0
 33 26  4  0
M  END
>  <sample_id>  (291)
train::O=C(Nc1ccc(Cl)c(Cl)c1)Oc1ccc(NC(=O)c2ccco2)cc1__gen0002

>  <partition>  (291)
BAT_EXTERNAL_CONFIRM

>  <method>  (291)
BA_seed193

>  <candidate>  (291)
primary

$$$$
train::CN(C)C(=O)c1ccc(=O)n(Cc2ccc(Cl)cc2Cl)c1__gen0000
     RDKit          3D

 35 36  0  0  0  0  0  0  0  0999 V2000
   -1.2135    1.5421    0.6370 C   0  0  0  0  0  0  0  0  0  0  0  0
   -0.2432    2.2233    1.4527 N   0  0  0  0  0  0  0  0  0  1  0  0
    1.1067    2.1935    1.2584 C   0  0  0  0  0  0  0  0  0  2  0  0
    1.8752    2.8778    1.9069 O   0  0  0  0  0  0  0  0  0  3  0  0
    1.6047    1.2973    0.1788 C   0  0  0  0  0  0  0  0  0  4  0  0
    1.3083   -0.0443    0.1721 C   0  0  0  0  0  0  0  0  0  5  0  0
    0.7058   -0.4951    0.9354 H   0  0  0  0  0  0  0  0  0 27  0  0
    1.7564   -0.8619   -0.8137 N   0  0  0  0  0  0  0  0  0  6  0  0
    1.2374   -2.2291   -0.8635 C   0  0  0  0  0  0  0  0  0 13  0  0
   -0.2632   -2.2116   -0.6642 C   0  0  0  0  0  0  0  0  0 14  0  0
   -0.8358   -2.7412    0.4851 C   0  0  0  0  0  0  0  0  0 15  0  0
   -0.2020   -3.2307    1.2065 H   0  0  0  0  0  0  0  0  0 24  0  0
   -2.1948   -2.6595    0.7170 C   0  0  0  0  0  0  0  0  0 16  0  0
   -2.6211   -3.0783    1.6176 H   0  0  0  0  0  0  0  0  0 23  0  0
   -3.0015   -2.0291   -0.2115 C   0  0  0  0  0  0  0  0  0 17  0  0
   -4.6970   -1.8704    0.1012 Cl  0  0  0  0  0  0  0  0  0 22  0  0
   -2.4653   -1.5049   -1.3761 C   0  0  0  0  0  0  0  0  0 18  0  0
   -3.1068   -1.0077   -2.0863 H   0  0  0  0  0  0  0  0  0 21  0  0
   -1.1021   -1.5925   -1.5955 C   0  0  0  0  0  0  0  0  0 19  0  0
   -0.4428   -0.9288   -3.0420 Cl  0  0  0  0  0  0  0  0  0 20  0  0
    1.7135   -2.8419   -0.0856 H   0  0  0  0  0  0  0  0  0 25  0  0
    1.5055   -2.6215   -1.8513 H   0  0  0  0  0  0  0  0  0 26  0  0
    2.6160   -0.4333   -1.8380 C   0  0  0  0  0  0  0  0  0  7  0  0
    3.0079   -1.2297   -2.6726 O   0  0  0  0  0  0  0  0  0  8  0  0
    2.9897    0.9441   -1.7537 C   0  0  0  0  0  0  0  0  0  9  0  0
    3.6612    1.2971   -2.5134 H   0  0  0  0  0  0  0  0  0 12  0  0
    2.4822    1.7795   -0.7997 C   0  0  0  0  0  0  0  0  0 10  0  0
    2.7613    2.8205   -0.7806 H   0  0  0  0  0  0  0  0  0 11  0  0
   -0.7821    2.9850    2.5409 C   0  0  0  0  0  0  0  0  0 28  0  0
   -1.4251    2.3489    3.1535 H   0  0  0  0  0  0  0  0  0 29  0  0
   -1.3596    3.8308    2.1557 H   0  0  0  0  0  0  0  0  0 30  0  0
    0.0576    3.3606    3.1428 H   0  0  0  0  0  0  0  0  0 31  0  0
   -2.0808    2.1915    0.5089 H   0  0  0  0  0  0  0  0  0 32  0  0
   -0.8100    1.3090   -0.3474 H   0  0  0  0  0  0  0  0  0 33  0  0
   -1.5426    0.6107    1.1246 H   0  0  0  0  0  0  0  0  0 34  0  0
  1  2  1  0
  2  3  1  0
  3  4  2  0
  3  5  1  0
  5  6  4  0
  6  7  1  0
  6  8  4  0
  8  9  1  0
  9 10  1  0
 10 11  4  0
 11 12  1  0
 11 13  4  0
 13 14  1  0
 13 15  4  0
 15 16  1  0
 15 17  4  0
 17 18  1  0
 17 19  4  0
 19 20  1  0
  9 21  1  0
  9 22  1  0
  8 23  4  0
 23 24  2  0
 23 25  4  0
 25 26  1  0
 25 27  4  0
 27 28  1  0
  2 29  1  0
 29 30  1  0
 29 31  1  0
 29 32  1  0
  1 33  1  0
  1 34  1  0
  1 35  1  0
 27  5  4  0
 19 10  4  0
M  END
>  <sample_id>  (292)
train::CN(C)C(=O)c1ccc(=O)n(Cc2ccc(Cl)cc2Cl)c1__gen0000

>  <partition>  (292)
BAT_EXTERNAL_CONFIRM

>  <method>  (292)
BA_seed193

>  <candidate>  (292)
primary

$$$$
train::CN(C)C(=O)c1ccc(=O)n(Cc2ccc(Cl)cc2Cl)c1__gen0001
     RDKit          3D

 35 36  0  0  0  0  0  0  0  0999 V2000
   -2.4608   -1.0380   -0.2121 C   0  0  0  0  0  0  0  0  0  0  0  0
   -2.9425    0.3076   -0.0156 N   0  0  0  0  0  0  0  0  0  1  0  0
   -2.2965    1.4234   -0.4262 C   0  0  0  0  0  0  0  0  0  2  0  0
   -2.6996    2.5462   -0.2072 O   0  0  0  0  0  0  0  0  0  3  0  0
   -1.0216    1.1899   -1.1921 C   0  0  0  0  0  0  0  0  0  4  0  0
    0.1706    1.1413   -0.5121 C   0  0  0  0  0  0  0  0  0  5  0  0
    0.2185    1.2100    0.5483 H   0  0  0  0  0  0  0  0  0 27  0  0
    1.3372    0.9804   -1.1638 N   0  0  0  0  0  0  0  0  0  6  0  0
    2.5595    0.8080   -0.4004 C   0  0  0  0  0  0  0  0  0 13  0  0
    2.4003   -0.1940    0.7015 C   0  0  0  0  0  0  0  0  0 14  0  0
    2.7201    0.1343    2.0149 C   0  0  0  0  0  0  0  0  0 15  0  0
    3.0926    1.1257    2.2260 H   0  0  0  0  0  0  0  0  0 24  0  0
    2.5732   -0.7766    3.0566 C   0  0  0  0  0  0  0  0  0 16  0  0
    2.8285   -0.5028    4.0625 H   0  0  0  0  0  0  0  0  0 23  0  0
    2.0687   -2.0351    2.7829 C   0  0  0  0  0  0  0  0  0 17  0  0
    1.8807   -3.1796    4.0482 Cl  0  0  0  0  0  0  0  0  0 22  0  0
    1.7492   -2.4047    1.4854 C   0  0  0  0  0  0  0  0  0 18  0  0
    1.3836   -3.3928    1.2676 H   0  0  0  0  0  0  0  0  0 21  0  0
    1.9058   -1.4832    0.4610 C   0  0  0  0  0  0  0  0  0 19  0  0
    1.5048   -1.9640   -1.1548 Cl  0  0  0  0  0  0  0  0  0 20  0  0
    2.8751    1.7714    0.0159 H   0  0  0  0  0  0  0  0  0 25  0  0
    3.3199    0.4775   -1.1185 H   0  0  0  0  0  0  0  0  0 26  0  0
    1.4387    0.9347   -2.5776 C   0  0  0  0  0  0  0  0  0  7  0  0
    2.5316    0.8021   -3.0887 O   0  0  0  0  0  0  0  0  0  8  0  0
    0.1806    1.0597   -3.2564 C   0  0  0  0  0  0  0  0  0  9  0  0
    0.2222    1.0462   -4.3289 H   0  0  0  0  0  0  0  0  0 12  0  0
   -1.0037    1.1572   -2.5918 C   0  0  0  0  0  0  0  0  0 10  0  0
   -1.9278    1.2476   -3.1363 H   0  0  0  0  0  0  0  0  0 11  0  0
   -4.1758    0.4232    0.7330 C   0  0  0  0  0  0  0  0  0 28  0  0
   -4.4097    1.4895    0.8098 H   0  0  0  0  0  0  0  0  0 29  0  0
   -4.0468   -0.0005    1.7293 H   0  0  0  0  0  0  0  0  0 30  0  0
   -4.9738   -0.1128    0.2181 H   0  0  0  0  0  0  0  0  0 31  0  0
   -2.1675   -1.4812    0.7499 H   0  0  0  0  0  0  0  0  0 32  0  0
   -3.2418   -1.6556   -0.6550 H   0  0  0  0  0  0  0  0  0 33  0  0
   -1.5931   -1.0552   -0.8734 H   0  0  0  0  0  0  0  0  0 34  0  0
  1  2  1  0
  2  3  1  0
  3  4  2  0
  3  5  1  0
  5  6  4  0
  6  7  1  0
  6  8  4  0
  8  9  1  0
  9 10  1  0
 10 11  4  0
 11 12  1  0
 11 13  4  0
 13 14  1  0
 13 15  4  0
 15 16  1  0
 15 17  4  0
 17 18  1  0
 17 19  4  0
 19 20  1  0
  9 21  1  0
  9 22  1  0
  8 23  4  0
 23 24  2  0
 23 25  4  0
 25 26  1  0
 25 27  4  0
 27 28  1  0
  2 29  1  0
 29 30  1  0
 29 31  1  0
 29 32  1  0
  1 33  1  0
  1 34  1  0
  1 35  1  0
 27  5  4  0
 19 10  4  0
M  END
>  <sample_id>  (293)
train::CN(C)C(=O)c1ccc(=O)n(Cc2ccc(Cl)cc2Cl)c1__gen0001

>  <partition>  (293)
BAT_EXTERNAL_CONFIRM

>  <method>  (293)
BA_seed193

>  <candidate>  (293)
primary

$$$$
train::CN(C)C(=O)c1ccc(=O)n(Cc2ccc(Cl)cc2Cl)c1__gen0002
     RDKit          3D

 35 36  0  0  0  0  0  0  0  0999 V2000
   -0.1997   -4.2917    2.8074 C   0  0  0  0  0  0  0  0  0  0  0  0
   -0.3998   -3.2688    1.8217 N   0  0  0  0  0  0  0  0  0  1  0  0
   -0.8427   -2.0396    2.2199 C   0  0  0  0  0  0  0  0  0  2  0  0
   -0.9885   -1.7406    3.3729 O   0  0  0  0  0  0  0  0  0  3  0  0
   -1.1190   -1.0522    1.1319 C   0  0  0  0  0  0  0  0  0  4  0  0
   -0.5570    0.1884    1.2423 C   0  0  0  0  0  0  0  0  0  5  0  0
    0.1255    0.4264    2.0523 H   0  0  0  0  0  0  0  0  0 27  0  0
   -0.8184    1.1788    0.3575 N   0  0  0  0  0  0  0  0  0  6  0  0
   -0.1421    2.4541    0.4330 C   0  0  0  0  0  0  0  0  0 13  0  0
    0.7380    2.6950   -0.7477 C   0  0  0  0  0  0  0  0  0 14  0  0
    0.4441    3.7059   -1.6698 C   0  0  0  0  0  0  0  0  0 15  0  0
   -0.4325    4.3068   -1.5124 H   0  0  0  0  0  0  0  0  0 24  0  0
    1.2341    3.9321   -2.7803 C   0  0  0  0  0  0  0  0  0 16  0  0
    0.9996    4.7127   -3.4688 H   0  0  0  0  0  0  0  0  0 23  0  0
    2.3521    3.1349   -2.9786 C   0  0  0  0  0  0  0  0  0 17  0  0
    3.3552    3.3943   -4.3560 Cl  0  0  0  0  0  0  0  0  0 22  0  0
    2.6703    2.1175   -2.1065 C   0  0  0  0  0  0  0  0  0 18  0  0
    3.5420    1.4950   -2.2642 H   0  0  0  0  0  0  0  0  0 21  0  0
    1.8654    1.9116   -0.9977 C   0  0  0  0  0  0  0  0  0 19  0  0
    2.2854    0.6418    0.0959 Cl  0  0  0  0  0  0  0  0  0 20  0  0
   -0.9003    3.2522    0.4887 H   0  0  0  0  0  0  0  0  0 25  0  0
    0.4432    2.4743    1.3647 H   0  0  0  0  0  0  0  0  0 26  0  0
   -1.7117    1.0177   -0.7235 C   0  0  0  0  0  0  0  0  0  7  0  0
   -1.9361    1.9505   -1.4683 O   0  0  0  0  0  0  0  0  0  8  0  0
   -2.3083   -0.2809   -0.8050 C   0  0  0  0  0  0  0  0  0  9  0  0
   -3.0151   -0.4512   -1.6076 H   0  0  0  0  0  0  0  0  0 12  0  0
   -2.0217   -1.2840    0.0800 C   0  0  0  0  0  0  0  0  0 10  0  0
   -2.5133   -2.2418   -0.0032 H   0  0  0  0  0  0  0  0  0 11  0  0
   -0.0096   -3.6116    0.4646 C   0  0  0  0  0  0  0  0  0 28  0  0
    0.9657   -4.1049    0.5056 H   0  0  0  0  0  0  0  0  0 29  0  0
   -0.7372   -4.2757    0.0085 H   0  0  0  0  0  0  0  0  0 30  0  0
    0.0841   -2.7112   -0.1434 H   0  0  0  0  0  0  0  0  0 31  0  0
   -0.5410   -3.9051    3.7609 H   0  0  0  0  0  0  0  0  0 32  0  0
   -0.7700   -5.1792    2.5405 H   0  0  0  0  0  0  0  0  0 33  0  0
    0.8591   -4.5515    2.8847 H   0  0  0  0  0  0  0  0  0 34  0  0
  1  2  1  0
  2  3  1  0
  3  4  2  0
  3  5  1  0
  5  6  4  0
  6  7  1  0
  6  8  4  0
  8  9  1  0
  9 10  1  0
 10 11  4  0
 11 12  1  0
 11 13  4  0
 13 14  1  0
 13 15  4  0
 15 16  1  0
 15 17  4  0
 17 18  1  0
 17 19  4  0
 19 20  1  0
  9 21  1  0
  9 22  1  0
  8 23  4  0
 23 24  2  0
 23 25  4  0
 25 26  1  0
 25 27  4  0
 27 28  1  0
  2 29  1  0
 29 30  1  0
 29 31  1  0
 29 32  1  0
  1 33  1  0
  1 34  1  0
  1 35  1  0
 27  5  4  0
 19 10  4  0
M  END
>  <sample_id>  (294)
train::CN(C)C(=O)c1ccc(=O)n(Cc2ccc(Cl)cc2Cl)c1__gen0002

>  <partition>  (294)
BAT_EXTERNAL_CONFIRM

>  <method>  (294)
BA_seed193

>  <candidate>  (294)
primary

$$$$
train::Cc1c(N=N_C(C(=O)Nc2ccccc2)=C(_O)c2ccccc2)c(=O)n(-c2ccccc2)n1C__gen0000
     RDKit          3D

 57 61  0  0  0  0  0  0  0  0999 V2000
    2.1425    1.8326    1.1469 C   0  0  0  0  0  0  0  0  0  0  0  0
    1.2816    0.6364    1.1093 C   0  0  0  0  0  0  0  0  0  1  0  0
    0.9379   -0.1379    0.0345 C   0  0  0  0  0  0  0  0  0  2  0  0
    1.3280    0.0683   -1.2742 N   0  0  0  0  0  0  0  0  0  3  0  0
    1.1197    1.2757   -1.7294 N   0  0  0  0  0  0  0  0  0  4  0  0
    0.8987    1.4868   -3.0161 C   0  0  0  0  0  0  0  0  0  5  0  0
    0.4923    2.8574   -3.4078 C   0  0  0  0  0  0  0  0  0 20  0  0
    0.7277    3.3224   -4.5041 O   0  0  0  0  0  0  0  0  0 21  0  0
   -0.2653    3.5504   -2.4839 N   0  0  0  0  0  0  0  0  0 22  0  0
   -0.8651    3.0616   -1.3235 C   0  0  0  0  0  0  0  0  0 23  0  0
   -0.8067    3.8214   -0.1538 C   0  0  0  0  0  0  0  0  0 24  0  0
   -0.3141    4.7846   -0.1744 H   0  0  0  0  0  0  0  0  0 33  0  0
   -1.3811    3.3541    1.0105 C   0  0  0  0  0  0  0  0  0 25  0  0
   -1.3345    3.9479    1.9118 H   0  0  0  0  0  0  0  0  0 32  0  0
   -2.0309    2.1203    1.0260 C   0  0  0  0  0  0  0  0  0 26  0  0
   -2.4740    1.7630    1.9434 H   0  0  0  0  0  0  0  0  0 31  0  0
   -2.1206    1.3879   -0.1454 C   0  0  0  0  0  0  0  0  0 27  0  0
   -2.6407    0.4419   -0.1399 H   0  0  0  0  0  0  0  0  0 30  0  0
   -1.5473    1.8444   -1.3046 C   0  0  0  0  0  0  0  0  0 28  0  0
   -1.6270    1.2799   -2.2169 H   0  0  0  0  0  0  0  0  0 29  0  0
   -0.3785    4.5250   -2.7029 H   0  0  0  0  0  0  0  0  0 34  0  0
    0.9601    0.4505   -3.9937 C   0  0  0  0  0  0  0  0  0  6  0  0
    0.7131    0.7113   -5.2794 O   0  0  0  0  0  0  0  0  0  7  0  0
    0.6698    1.6864   -5.3982 H   0  0  0  0  0  0  0  0  0  8  0  0
    1.1937   -0.8513   -3.5210 C   0  0  0  0  0  0  0  0  0  9  0  0
    1.8548   -0.9632   -2.1728 C   0  0  2  0  0  0  0  0  0 10  0  0
    2.9315   -0.7074   -2.3045 H   0  0  0  0  0  0  0  0  0 19  0  0
    1.7962   -2.3312   -1.5876 C   0  0  0  0  0  0  0  0  0 11  0  0
    2.1681   -2.4047   -0.5821 H   0  0  0  0  0  0  0  0  0 18  0  0
    1.3901   -3.3930   -2.2974 C   0  0  0  0  0  0  0  0  0 12  0  0
    1.4318   -4.3783   -1.8736 H   0  0  0  0  0  0  0  0  0 17  0  0
    0.9511   -3.2491   -3.6473 C   0  0  0  0  0  0  0  0  0 13  0  0
    0.6969   -4.1315   -4.1980 H   0  0  0  0  0  0  0  0  0 16  0  0
    0.8606   -2.0210   -4.2134 C   0  0  0  0  0  0  0  0  0 14  0  0
    0.5281   -1.9277   -5.2372 H   0  0  0  0  0  0  0  0  0 15  0  0
   -0.0089   -1.1461    0.4495 C   0  0  0  0  0  0  0  0  0 35  0  0
   -0.5885   -2.0087   -0.1710 O   0  0  0  0  0  0  0  0  0 36  0  0
   -0.1562   -0.9124    1.8294 N   0  0  0  0  0  0  0  0  0 37  0  0
   -0.8369   -1.7598    2.7097 C   0  0  0  0  0  0  0  0  0 38  0  0
   -2.0864   -2.2522    2.3478 C   0  0  0  0  0  0  0  0  0 39  0  0
   -2.5146   -1.9325    1.4142 H   0  0  0  0  0  0  0  0  0 48  0  0
   -2.7482   -3.1173    3.1991 C   0  0  0  0  0  0  0  0  0 40  0  0
   -3.7214   -3.4848    2.9230 H   0  0  0  0  0  0  0  0  0 47  0  0
   -2.1720   -3.5060    4.4001 C   0  0  0  0  0  0  0  0  0 41  0  0
   -2.6950   -4.1831    5.0476 H   0  0  0  0  0  0  0  0  0 46  0  0
   -0.9135   -3.0341    4.7388 C   0  0  0  0  0  0  0  0  0 42  0  0
   -0.4605   -3.3451    5.6714 H   0  0  0  0  0  0  0  0  0 45  0  0
   -0.2457   -2.1724    3.9115 C   0  0  0  0  0  0  0  0  0 43  0  0
    0.7409   -1.8031    4.1784 H   0  0  0  0  0  0  0  0  0 44  0  0
    0.6733    0.1164    2.2176 N   0  0  0  0  0  0  0  0  0 49  0  0
    0.4079    0.9377    3.3642 C   0  0  0  0  0  0  0  0  0 50  0  0
   -0.2172    1.7980    3.1178 H   0  0  0  0  0  0  0  0  0 51  0  0
    1.3466    1.2792    3.7941 H   0  0  0  0  0  0  0  0  0 52  0  0
   -0.1253    0.3513    4.1235 H   0  0  0  0  0  0  0  0  0 53  0  0
    1.5504    2.7164    0.8680 H   0  0  0  0  0  0  0  0  0 54  0  0
    2.9474    1.7350    0.4252 H   0  0  0  0  0  0  0  0  0 55  0  0
    2.5352    2.0099    2.1410 H   0  0  0  0  0  0  0  0  0 56  0  0
  1  2  1  0
  2  3  4  0
  3  4  1  0
  4  5  1  0
  5  6  2  0
  6  7  1  0
  7  8  2  0
  7  9  1  0
  9 10  1  0
 10 11  4  0
 11 12  1  0
 11 13  4  0
 13 14  1  0
 13 15  4  0
 15 16  1  0
 15 17  4  0
 17 18  1  0
 17 19  4  0
 19 20  1  0
  9 21  1  0
  6 22  1  0
 22 23  1  0
 23 24  1  0
 22 25  2  0
 25 26  1  0
 26 27  1  6
 26 28  1  0
 28 29  1  0
 28 30  2  0
 30 31  1  0
 30 32  1  0
 32 33  1  0
 32 34  2  0
 34 35  1  0
  3 36  4  0
 36 37  2  0
 36 38  4  0
 38 39  1  0
 39 40  4  0
 40 41  1  0
 40 42  4  0
 42 43  1  0
 42 44  4  0
 44 45  1  0
 44 46  4  0
 46 47  1  0
 46 48  4  0
 48 49  1  0
 38 50  4  0
 50 51  1  0
 51 52  1  0
 51 53  1  0
 51 54  1  0
  1 55  1  0
  1 56  1  0
  1 57  1  0
 50  2  4  0
 26  4  1  0
 48 39  4  0
 19 10  4  0
 34 25  1  0
M  END
>  <sample_id>  (295)
train::Cc1c(N=N_C(C(=O)Nc2ccccc2)=C(_O)c2ccccc2)c(=O)n(-c2ccccc2)n1C__gen0000

>  <partition>  (295)
BAT_EXTERNAL_CONFIRM

>  <method>  (295)
BA_seed193

>  <candidate>  (295)
primary

$$$$
train::Cc1c(N=N_C(C(=O)Nc2ccccc2)=C(_O)c2ccccc2)c(=O)n(-c2ccccc2)n1C__gen0001
     RDKit          3D

 57 61  0  0  0  0  0  0  0  0999 V2000
    3.0020    2.0494    0.0019 C   0  0  0  0  0  0  0  0  0  0  0  0
    1.9083    1.4158    0.8143 C   0  0  0  0  0  0  0  0  0  1  0  0
    0.6076    1.1414    0.4240 C   0  0  0  0  0  0  0  0  0  2  0  0
   -0.0092    1.3805   -0.7691 N   0  0  0  0  0  0  0  0  0  3  0  0
   -0.6048    0.3441   -1.3347 N   0  0  0  0  0  0  0  0  0  4  0  0
   -1.1078    0.4397   -2.5457 C   0  0  0  0  0  0  0  0  0  5  0  0
   -1.7540   -0.7891   -3.0761 C   0  0  0  0  0  0  0  0  0 20  0  0
   -2.2266   -0.8332   -4.1997 O   0  0  0  0  0  0  0  0  0 21  0  0
   -1.7365   -1.8063   -2.1857 N   0  0  0  0  0  0  0  0  0 22  0  0
   -2.2223   -3.1033   -2.3129 C   0  0  0  0  0  0  0  0  0 23  0  0
   -2.9451   -3.5520   -3.4050 C   0  0  0  0  0  0  0  0  0 24  0  0
   -3.1461   -2.8795   -4.2275 H   0  0  0  0  0  0  0  0  0 33  0  0
   -3.4019   -4.8567   -3.4574 C   0  0  0  0  0  0  0  0  0 25  0  0
   -3.9583   -5.1948   -4.3086 H   0  0  0  0  0  0  0  0  0 32  0  0
   -3.1477   -5.7196   -2.3953 C   0  0  0  0  0  0  0  0  0 26  0  0
   -3.5143   -6.7351   -2.4306 H   0  0  0  0  0  0  0  0  0 31  0  0
   -2.4248   -5.2888   -1.3020 C   0  0  0  0  0  0  0  0  0 27  0  0
   -2.2331   -5.9532   -0.4710 H   0  0  0  0  0  0  0  0  0 30  0  0
   -1.9774   -3.9923   -1.2499 C   0  0  0  0  0  0  0  0  0 28  0  0
   -1.4273   -3.6290   -0.3988 H   0  0  0  0  0  0  0  0  0 29  0  0
   -1.2846   -1.5637   -1.3092 H   0  0  0  0  0  0  0  0  0 34  0  0
   -0.9840    1.6211   -3.3528 C   0  0  0  0  0  0  0  0  0  6  0  0
   -1.3839    1.6108   -4.6259 O   0  0  0  0  0  0  0  0  0  7  0  0
   -1.7971    0.7294   -4.8088 H   0  0  0  0  0  0  0  0  0  8  0  0
   -0.4038    2.7399   -2.7682 C   0  0  0  0  0  0  0  0  0  9  0  0
   -0.3746    2.7136   -1.2490 C   0  0  2  0  0  0  0  0  0 10  0  0
   -1.4224    2.9240   -0.8981 H   0  0  0  0  0  0  0  0  0 19  0  0
    0.5007    3.7610   -0.6681 C   0  0  0  0  0  0  0  0  0 11  0  0
    0.6096    3.7427    0.4026 H   0  0  0  0  0  0  0  0  0 18  0  0
    1.1204    4.6937   -1.4206 C   0  0  0  0  0  0  0  0  0 12  0  0
    1.7661    5.4255   -0.9727 H   0  0  0  0  0  0  0  0  0 17  0  0
    0.9260    4.7495   -2.8288 C   0  0  0  0  0  0  0  0  0 13  0  0
    1.4021    5.5297   -3.3924 H   0  0  0  0  0  0  0  0  0 16  0  0
    0.1932    3.7784   -3.4631 C   0  0  0  0  0  0  0  0  0 14  0  0
    0.0229    3.8494   -4.5236 H   0  0  0  0  0  0  0  0  0 15  0  0
   -0.0684    0.4878    1.5224 C   0  0  0  0  0  0  0  0  0 35  0  0
   -1.2010    0.0459    1.6323 O   0  0  0  0  0  0  0  0  0 36  0  0
    0.9103    0.4288    2.5280 N   0  0  0  0  0  0  0  0  0 37  0  0
    0.9000   -0.3681    3.6878 C   0  0  0  0  0  0  0  0  0 38  0  0
   -0.2507   -0.4342    4.4506 C   0  0  0  0  0  0  0  0  0 39  0  0
   -1.1229    0.1269    4.1646 H   0  0  0  0  0  0  0  0  0 48  0  0
   -0.2831   -1.2534    5.5691 C   0  0  0  0  0  0  0  0  0 40  0  0
   -1.1700   -1.2903    6.1787 H   0  0  0  0  0  0  0  0  0 47  0  0
    0.8368   -1.9799    5.9281 C   0  0  0  0  0  0  0  0  0 41  0  0
    0.8068   -2.6102    6.8046 H   0  0  0  0  0  0  0  0  0 46  0  0
    1.9748   -1.9332    5.1463 C   0  0  0  0  0  0  0  0  0 42  0  0
    2.8525   -2.5026    5.4172 H   0  0  0  0  0  0  0  0  0 45  0  0
    2.0120   -1.1371    4.0142 C   0  0  0  0  0  0  0  0  0 43  0  0
    2.8987   -1.0871    3.4258 H   0  0  0  0  0  0  0  0  0 44  0  0
    2.1116    0.9359    2.0705 N   0  0  0  0  0  0  0  0  0 49  0  0
    2.9319    1.6837    2.9999 C   0  0  0  0  0  0  0  0  0 50  0  0
    3.9916    1.5138    2.7541 H   0  0  0  0  0  0  0  0  0 51  0  0
    2.7404    1.3335    4.0094 H   0  0  0  0  0  0  0  0  0 52  0  0
    2.7267    2.7655    2.9405 H   0  0  0  0  0  0  0  0  0 53  0  0
    2.6591    2.2243   -1.0051 H   0  0  0  0  0  0  0  0  0 54  0  0
    3.3359    2.9579    0.4701 H   0  0  0  0  0  0  0  0  0 55  0  0
    3.8355    1.3490   -0.0005 H   0  0  0  0  0  0  0  0  0 56  0  0
  1  2  1  0
  2  3  4  0
  3  4  1  0
  4  5  1  0
  5  6  2  0
  6  7  1  0
  7  8  2  0
  7  9  1  0
  9 10  1  0
 10 11  4  0
 11 12  1  0
 11 13  4  0
 13 14  1  0
 13 15  4  0
 15 16  1  0
 15 17  4  0
 17 18  1  0
 17 19  4  0
 19 20  1  0
  9 21  1  0
  6 22  1  0
 22 23  1  0
 23 24  1  0
 22 25  2  0
 25 26  1  0
 26 27  1  1
 26 28  1  0
 28 29  1  0
 28 30  2  0
 30 31  1  0
 30 32  1  0
 32 33  1  0
 32 34  2  0
 34 35  1  0
  3 36  4  0
 36 37  2  0
 36 38  4  0
 38 39  1  0
 39 40  4  0
 40 41  1  0
 40 42  4  0
 42 43  1  0
 42 44  4  0
 44 45  1  0
 44 46  4  0
 46 47  1  0
 46 48  4  0
 48 49  1  0
 38 50  4  0
 50 51  1  0
 51 52  1  0
 51 53  1  0
 51 54  1  0
  1 55  1  0
  1 56  1  0
  1 57  1  0
 50  2  4  0
 26  4  1  0
 48 39  4  0
 19 10  4  0
 34 25  1  0
M  END
>  <sample_id>  (296)
train::Cc1c(N=N_C(C(=O)Nc2ccccc2)=C(_O)c2ccccc2)c(=O)n(-c2ccccc2)n1C__gen0001

>  <partition>  (296)
BAT_EXTERNAL_CONFIRM

>  <method>  (296)
BA_seed193

>  <candidate>  (296)
primary

$$$$
train::Cc1c(N=N_C(C(=O)Nc2ccccc2)=C(_O)c2ccccc2)c(=O)n(-c2ccccc2)n1C__gen0002
     RDKit          3D

 57 61  0  0  0  0  0  0  0  0999 V2000
   -0.1784    1.4033    2.3060 C   0  0  0  0  0  0  0  0  0  0  0  0
    0.3055    1.1479    0.9347 C   0  0  0  0  0  0  0  0  0  1  0  0
    0.6710   -0.0332    0.3325 C   0  0  0  0  0  0  0  0  0  2  0  0
    0.6206   -1.3107    0.8371 N   0  0  0  0  0  0  0  0  0  3  0  0
   -0.2921   -2.0536    0.2709 N   0  0  0  0  0  0  0  0  0  4  0  0
   -0.6219   -3.2234    0.7727 C   0  0  0  0  0  0  0  0  0  5  0  0
   -1.5982   -4.0275   -0.0223 C   0  0  0  0  0  0  0  0  0 20  0  0
   -1.6881   -5.2306    0.0800 O   0  0  0  0  0  0  0  0  0 21  0  0
   -2.3509   -3.3225   -0.9292 N   0  0  0  0  0  0  0  0  0 22  0  0
   -2.4983   -1.9243   -1.0035 C   0  0  0  0  0  0  0  0  0 23  0  0
   -2.9125   -1.2000    0.1204 C   0  0  0  0  0  0  0  0  0 24  0  0
   -3.1558   -1.7375    1.0226 H   0  0  0  0  0  0  0  0  0 33  0  0
   -3.0367    0.1631    0.0519 C   0  0  0  0  0  0  0  0  0 25  0  0
   -3.3703    0.7202    0.9244 H   0  0  0  0  0  0  0  0  0 32  0  0
   -2.7502    0.8470   -1.1222 C   0  0  0  0  0  0  0  0  0 26  0  0
   -2.8352    1.9139   -1.1526 H   0  0  0  0  0  0  0  0  0 31  0  0
   -2.3568    0.1240   -2.2426 C   0  0  0  0  0  0  0  0  0 27  0  0
   -2.1499    0.6517   -3.1613 H   0  0  0  0  0  0  0  0  0 30  0  0
   -2.2483   -1.2480   -2.1865 C   0  0  0  0  0  0  0  0  0 28  0  0
   -1.9663   -1.8270   -3.0581 H   0  0  0  0  0  0  0  0  0 29  0  0
   -2.8718   -3.8941   -1.5716 H   0  0  0  0  0  0  0  0  0 34  0  0
   -0.1281   -3.7190    2.0095 C   0  0  0  0  0  0  0  0  0  6  0  0
   -0.4929   -4.8856    2.5114 O   0  0  0  0  0  0  0  0  0  7  0  0
   -1.0067   -5.3692    1.8247 H   0  0  0  0  0  0  0  0  0  8  0  0
    0.7773   -2.8645    2.7069 C   0  0  0  0  0  0  0  0  0  9  0  0
    1.5319   -1.9147    1.8097 C   0  0  2  0  0  0  0  0  0 10  0  0
    2.2610   -2.5114    1.2319 H   0  0  0  0  0  0  0  0  0 19  0  0
    2.3211   -0.9034    2.5715 C   0  0  0  0  0  0  0  0  0 11  0  0
    2.8022   -0.1372    1.9967 H   0  0  0  0  0  0  0  0  0 18  0  0
    2.4575   -0.9622    3.9132 C   0  0  0  0  0  0  0  0  0 12  0  0
    3.0868   -0.2487    4.4336 H   0  0  0  0  0  0  0  0  0 17  0  0
    1.8570   -2.0070    4.6732 C   0  0  0  0  0  0  0  0  0 13  0  0
    2.0246   -2.0472    5.7258 H   0  0  0  0  0  0  0  0  0 16  0  0
    1.0203   -2.8942    4.0698 C   0  0  0  0  0  0  0  0  0 14  0  0
    0.5539   -3.6855    4.6494 H   0  0  0  0  0  0  0  0  0 15  0  0
    0.9599    0.2266   -1.0697 C   0  0  0  0  0  0  0  0  0 35  0  0
    1.3560   -0.5341   -1.9464 O   0  0  0  0  0  0  0  0  0 36  0  0
    0.7482    1.5809   -1.1928 N   0  0  0  0  0  0  0  0  0 37  0  0
    1.0981    2.3780   -2.3134 C   0  0  0  0  0  0  0  0  0 38  0  0
    1.8053    3.5582   -2.1495 C   0  0  0  0  0  0  0  0  0 39  0  0
    2.0633    3.9145   -1.1500 H   0  0  0  0  0  0  0  0  0 48  0  0
    2.1564    4.3082   -3.2559 C   0  0  0  0  0  0  0  0  0 40  0  0
    2.7237    5.2283   -3.1013 H   0  0  0  0  0  0  0  0  0 47  0  0
    1.8458    3.8736   -4.5209 C   0  0  0  0  0  0  0  0  0 41  0  0
    2.1305    4.4521   -5.3799 H   0  0  0  0  0  0  0  0  0 46  0  0
    1.1554    2.6716   -4.6872 C   0  0  0  0  0  0  0  0  0 42  0  0
    0.9094    2.3325   -5.6704 H   0  0  0  0  0  0  0  0  0 45  0  0
    0.7889    1.9265   -3.5928 C   0  0  0  0  0  0  0  0  0 43  0  0
    0.2697    0.9915   -3.7012 H   0  0  0  0  0  0  0  0  0 44  0  0
    0.4405    2.1665   -0.0207 N   0  0  0  0  0  0  0  0  0 49  0  0
   -0.2033    3.4489    0.1045 C   0  0  0  0  0  0  0  0  0 50  0  0
   -1.2881    3.3298    0.1286 H   0  0  0  0  0  0  0  0  0 51  0  0
    0.1065    3.9464    1.0063 H   0  0  0  0  0  0  0  0  0 52  0  0
    0.0772    4.0497   -0.7565 H   0  0  0  0  0  0  0  0  0 53  0  0
   -0.5111    0.4590    2.7414 H   0  0  0  0  0  0  0  0  0 54  0  0
   -1.0244    2.0899    2.2882 H   0  0  0  0  0  0  0  0  0 55  0  0
    0.6109    1.8124    2.9091 H   0  0  0  0  0  0  0  0  0 56  0  0
  1  2  1  0
  2  3  4  0
  3  4  1  0
  4  5  1  0
  5  6  2  0
  6  7  1  0
  7  8  2  0
  7  9  1  0
  9 10  1  0
 10 11  4  0
 11 12  1  0
 11 13  4  0
 13 14  1  0
 13 15  4  0
 15 16  1  0
 15 17  4  0
 17 18  1  0
 17 19  4  0
 19 20  1  0
  9 21  1  0
  6 22  1  0
 22 23  1  0
 23 24  1  0
 22 25  2  0
 25 26  1  0
 26 27  1  6
 26 28  1  0
 28 29  1  0
 28 30  2  0
 30 31  1  0
 30 32  1  0
 32 33  1  0
 32 34  2  0
 34 35  1  0
  3 36  4  0
 36 37  2  0
 36 38  4  0
 38 39  1  0
 39 40  4  0
 40 41  1  0
 40 42  4  0
 42 43  1  0
 42 44  4  0
 44 45  1  0
 44 46  4  0
 46 47  1  0
 46 48  4  0
 48 49  1  0
 38 50  4  0
 50 51  1  0
 51 52  1  0
 51 53  1  0
 51 54  1  0
  1 55  1  0
  1 56  1  0
  1 57  1  0
 50  2  4  0
 26  4  1  0
 48 39  4  0
 19 10  4  0
 34 25  1  0
M  END
>  <sample_id>  (297)
train::Cc1c(N=N_C(C(=O)Nc2ccccc2)=C(_O)c2ccccc2)c(=O)n(-c2ccccc2)n1C__gen0002

>  <partition>  (297)
BAT_EXTERNAL_CONFIRM

>  <method>  (297)
BA_seed193

>  <candidate>  (297)
primary

$$$$
train::CC(NC(=O)Cn1c(NCCO)nc2ccccc21)c1ccccc1__gen0000
     RDKit          3D

 47 49  0  0  0  0  0  0  0  0999 V2000
   -3.9273    0.5046   -1.6078 C   0  0  0  0  0  0  0  0  0  0  0  0
   -4.5307    1.3736   -1.4032 H   0  0  0  0  0  0  0  0  0  1  0  0
   -3.3774    0.6502   -2.5341 H   0  0  0  0  0  0  0  0  0  2  0  0
   -4.5850   -0.3613   -1.7264 H   0  0  0  0  0  0  0  0  0  3  0  0
   -2.9670    0.2342   -0.4486 C   0  0  1  0  0  0  0  0  0  4  0  0
   -2.2175   -0.9866   -0.6615 N   0  0  0  0  0  0  0  0  0  5  0  0
   -1.8121   -1.7466    0.3775 C   0  0  0  0  0  0  0  0  0  6  0  0
   -2.3009   -1.7064    1.4836 O   0  0  0  0  0  0  0  0  0  7  0  0
   -0.5614   -2.5644    0.0584 C   0  0  0  0  0  0  0  0  0  8  0  0
    0.5218   -1.6078   -0.0691 N   0  0  0  0  0  0  0  0  0  9  0  0
    1.0183   -0.8540    0.9619 C   0  0  0  0  0  0  0  0  0 10  0  0
    0.5572   -0.9545    2.2345 N   0  0  0  0  0  0  0  0  0 22  0  0
   -0.0690   -1.6826    2.4552 H   0  0  0  0  0  0  0  0  0 23  0  0
    1.3070   -0.3537    3.3032 C   0  0  0  0  0  0  0  0  0 24  0  0
    0.6447   -0.1503    4.1357 H   0  0  0  0  0  0  0  0  0 25  0  0
    1.7175    0.5887    2.9250 H   0  0  0  0  0  0  0  0  0 26  0  0
    2.4456   -1.2687    3.7581 C   0  0  0  0  0  0  0  0  0 27  0  0
    3.2542   -1.6849    2.6823 O   0  0  0  0  0  0  0  0  0 28  0  0
    3.4469   -0.9197    2.1207 H   0  0  0  0  0  0  0  0  0 29  0  0
    2.0746   -2.1979    4.1990 H   0  0  0  0  0  0  0  0  0 30  0  0
    3.0599   -0.7341    4.5109 H   0  0  0  0  0  0  0  0  0 31  0  0
    1.9277    0.0129    0.5708 N   0  0  0  0  0  0  0  0  0 11  0  0
    1.9700   -0.1047   -0.7978 C   0  0  0  0  0  0  0  0  0 12  0  0
    2.7053    0.6194   -1.7313 C   0  0  0  0  0  0  0  0  0 13  0  0
    3.3837    1.3874   -1.4048 H   0  0  0  0  0  0  0  0  0 21  0  0
    2.5453    0.3193   -3.0577 C   0  0  0  0  0  0  0  0  0 14  0  0
    3.0874    0.8500   -3.8148 H   0  0  0  0  0  0  0  0  0 20  0  0
    1.6453   -0.6974   -3.4621 C   0  0  0  0  0  0  0  0  0 15  0  0
    1.5587   -0.9019   -4.5203 H   0  0  0  0  0  0  0  0  0 19  0  0
    0.9204   -1.4252   -2.5522 C   0  0  0  0  0  0  0  0  0 16  0  0
    0.2441   -2.2073   -2.8963 H   0  0  0  0  0  0  0  0  0 18  0  0
    1.0735   -1.1081   -1.2180 C   0  0  0  0  0  0  0  0  0 17  0  0
   -0.6464   -3.1027   -0.8892 H   0  0  0  0  0  0  0  0  0 32  0  0
   -0.3739   -3.2814    0.8434 H   0  0  0  0  0  0  0  0  0 33  0  0
   -1.6414   -1.0176   -1.4992 H   0  0  0  0  0  0  0  0  0 34  0  0
   -1.9501    1.3482   -0.2903 C   0  0  0  0  0  0  0  0  0 35  0  0
   -1.1454    1.7354   -1.3379 C   0  0  0  0  0  0  0  0  0 36  0  0
   -1.2667    1.2913   -2.3253 H   0  0  0  0  0  0  0  0  0 45  0  0
   -0.1606    2.6856   -1.1768 C   0  0  0  0  0  0  0  0  0 37  0  0
    0.4696    2.9819   -1.9989 H   0  0  0  0  0  0  0  0  0 44  0  0
    0.0429    3.2542    0.0810 C   0  0  0  0  0  0  0  0  0 38  0  0
    0.8199    4.0065    0.2094 H   0  0  0  0  0  0  0  0  0 43  0  0
   -0.7423    2.8681    1.1324 C   0  0  0  0  0  0  0  0  0 39  0  0
   -0.5900    3.3003    2.1296 H   0  0  0  0  0  0  0  0  0 42  0  0
   -1.7238    1.9091    0.9640 C   0  0  0  0  0  0  0  0  0 40  0  0
   -2.3291    1.5960    1.8052 H   0  0  0  0  0  0  0  0  0 41  0  0
   -3.5233    0.1027    0.4820 H   0  0  0  0  0  0  0  0  0 46  0  0
  1  2  1  0
  1  3  1  0
  1  4  1  0
  1  5  1  0
  5  6  1  0
  6  7  1  0
  7  8  2  0
  7  9  1  0
  9 10  1  0
 10 11  4  0
 11 12  1  0
 12 13  1  0
 12 14  1  0
 14 15  1  0
 14 16  1  0
 14 17  1  0
 17 18  1  0
 18 19  1  0
 17 20  1  0
 17 21  1  0
 11 22  4  0
 22 23  4  0
 23 24  4  0
 24 25  1  0
 24 26  4  0
 26 27  1  0
 26 28  4  0
 28 29  1  0
 28 30  4  0
 30 31  1  0
 30 32  4  0
  9 33  1  0
  9 34  1  0
  6 35  1  0
  5 36  1  0
 36 37  4  0
 37 38  1  0
 37 39  4  0
 39 40  1  0
 39 41  4  0
 41 42  1  0
 41 43  4  0
 43 44  1  0
 43 45  4  0
 45 46  1  0
  5 47  1  1
 32 10  4  0
 45 36  4  0
 32 23  4  0
M  END
>  <sample_id>  (298)
train::CC(NC(=O)Cn1c(NCCO)nc2ccccc21)c1ccccc1__gen0000

>  <partition>  (298)
BAT_EXTERNAL_CONFIRM

>  <method>  (298)
BA_seed193

>  <candidate>  (298)
primary

$$$$
train::CC(NC(=O)Cn1c(NCCO)nc2ccccc21)c1ccccc1__gen0001
     RDKit          3D

 47 49  0  0  0  0  0  0  0  0999 V2000
   -1.8522   -2.0987    2.6861 C   0  0  0  0  0  0  0  0  0  0  0  0
   -2.8336   -1.8442    3.0765 H   0  0  0  0  0  0  0  0  0  1  0  0
   -1.7121   -3.1766    2.7566 H   0  0  0  0  0  0  0  0  0  2  0  0
   -1.0861   -1.6150    3.2921 H   0  0  0  0  0  0  0  0  0  3  0  0
   -1.7341   -1.6581    1.2230 C   0  0  1  0  0  0  0  0  0  4  0  0
   -1.9857   -0.2326    1.1153 N   0  0  0  0  0  0  0  0  0  5  0  0
   -2.2866    0.3447   -0.0452 C   0  0  0  0  0  0  0  0  0  6  0  0
   -2.5057   -0.2798   -1.0713 O   0  0  0  0  0  0  0  0  0  7  0  0
   -2.1108    1.8650   -0.0383 C   0  0  0  0  0  0  0  0  0  8  0  0
   -0.6972    2.0868   -0.2322 N   0  0  0  0  0  0  0  0  0  9  0  0
    0.0278    1.7034   -1.3392 C   0  0  0  0  0  0  0  0  0 10  0  0
   -0.5851    1.4272   -2.5217 N   0  0  0  0  0  0  0  0  0 22  0  0
   -1.5423    1.1230   -2.4540 H   0  0  0  0  0  0  0  0  0 23  0  0
    0.1776    0.7601   -3.5495 C   0  0  0  0  0  0  0  0  0 24  0  0
    1.1655    1.2549   -3.6009 H   0  0  0  0  0  0  0  0  0 25  0  0
   -0.3445    0.9025   -4.4934 H   0  0  0  0  0  0  0  0  0 26  0  0
    0.3982   -0.7273   -3.2689 C   0  0  0  0  0  0  0  0  0 27  0  0
   -0.7843   -1.4480   -3.1032 O   0  0  0  0  0  0  0  0  0 28  0  0
   -1.2804   -1.0938   -2.3386 H   0  0  0  0  0  0  0  0  0 29  0  0
    0.8960   -1.1925   -4.1368 H   0  0  0  0  0  0  0  0  0 30  0  0
    1.0525   -0.8256   -2.3937 H   0  0  0  0  0  0  0  0  0 31  0  0
    1.3198    1.7390   -1.1579 N   0  0  0  0  0  0  0  0  0 11  0  0
    1.4797    2.1170    0.1639 C   0  0  0  0  0  0  0  0  0 12  0  0
    2.6540    2.2963    0.9066 C   0  0  0  0  0  0  0  0  0 13  0  0
    3.6202    2.1470    0.4557 H   0  0  0  0  0  0  0  0  0 21  0  0
    2.5106    2.6427    2.2347 C   0  0  0  0  0  0  0  0  0 14  0  0
    3.3996    2.8054    2.8312 H   0  0  0  0  0  0  0  0  0 20  0  0
    1.2620    2.8536    2.8183 C   0  0  0  0  0  0  0  0  0 15  0  0
    1.2094    3.1331    3.8571 H   0  0  0  0  0  0  0  0  0 19  0  0
    0.1085    2.6894    2.0978 C   0  0  0  0  0  0  0  0  0 16  0  0
   -0.8633    2.8540    2.5505 H   0  0  0  0  0  0  0  0  0 18  0  0
    0.2225    2.3238    0.7666 C   0  0  0  0  0  0  0  0  0 17  0  0
   -2.6624    2.3224   -0.8664 H   0  0  0  0  0  0  0  0  0 32  0  0
   -2.4324    2.3015    0.9004 H   0  0  0  0  0  0  0  0  0 33  0  0
   -1.6295    0.3379    1.8647 H   0  0  0  0  0  0  0  0  0 34  0  0
   -0.3641   -1.9983    0.6671 C   0  0  0  0  0  0  0  0  0 35  0  0
    0.7392   -1.2304    1.0049 C   0  0  0  0  0  0  0  0  0 36  0  0
    0.6476   -0.4066    1.6814 H   0  0  0  0  0  0  0  0  0 45  0  0
    1.9871   -1.5163    0.4769 C   0  0  0  0  0  0  0  0  0 37  0  0
    2.8395   -0.9163    0.7214 H   0  0  0  0  0  0  0  0  0 44  0  0
    2.1218   -2.5803   -0.4178 C   0  0  0  0  0  0  0  0  0 38  0  0
    3.0871   -2.8056   -0.8339 H   0  0  0  0  0  0  0  0  0 43  0  0
    1.0268   -3.3523   -0.7492 C   0  0  0  0  0  0  0  0  0 39  0  0
    1.1333   -4.1839   -1.4365 H   0  0  0  0  0  0  0  0  0 42  0  0
   -0.2160   -3.0507   -0.2236 C   0  0  0  0  0  0  0  0  0 40  0  0
   -1.0770   -3.6388   -0.5036 H   0  0  0  0  0  0  0  0  0 41  0  0
   -2.5009   -2.1591    0.6269 H   0  0  0  0  0  0  0  0  0 46  0  0
  1  2  1  0
  1  3  1  0
  1  4  1  0
  1  5  1  0
  5  6  1  0
  6  7  1  0
  7  8  2  0
  7  9  1  0
  9 10  1  0
 10 11  4  0
 11 12  1  0
 12 13  1  0
 12 14  1  0
 14 15  1  0
 14 16  1  0
 14 17  1  0
 17 18  1  0
 18 19  1  0
 17 20  1  0
 17 21  1  0
 11 22  4  0
 22 23  4  0
 23 24  4  0
 24 25  1  0
 24 26  4  0
 26 27  1  0
 26 28  4  0
 28 29  1  0
 28 30  4  0
 30 31  1  0
 30 32  4  0
  9 33  1  0
  9 34  1  0
  6 35  1  0
  5 36  1  0
 36 37  4  0
 37 38  1  0
 37 39  4  0
 39 40  1  0
 39 41  4  0
 41 42  1  0
 41 43  4  0
 43 44  1  0
 43 45  4  0
 45 46  1  0
  5 47  1  6
 32 10  4  0
 45 36  4  0
 32 23  4  0
M  END
>  <sample_id>  (299)
train::CC(NC(=O)Cn1c(NCCO)nc2ccccc21)c1ccccc1__gen0001

>  <partition>  (299)
BAT_EXTERNAL_CONFIRM

>  <method>  (299)
BA_seed193

>  <candidate>  (299)
primary

$$$$
train::CC(NC(=O)Cn1c(NCCO)nc2ccccc21)c1ccccc1__gen0002
     RDKit          3D

 47 49  0  0  0  0  0  0  0  0999 V2000
   -0.0891   -0.3115    2.8775 C   0  0  0  0  0  0  0  0  0  0  0  0
    0.8875   -0.1485    2.4380 H   0  0  0  0  0  0  0  0  0  1  0  0
   -0.0053   -0.9300    3.7607 H   0  0  0  0  0  0  0  0  0  2  0  0
   -0.4923    0.6472    3.1624 H   0  0  0  0  0  0  0  0  0  3  0  0
   -1.0227   -0.9789    1.8675 C   0  0  1  0  0  0  0  0  0  4  0  0
   -1.1478   -0.1245    0.7093 N   0  0  0  0  0  0  0  0  0  5  0  0
   -2.3093    0.4559    0.3277 C   0  0  0  0  0  0  0  0  0  6  0  0
   -3.3531    0.3167    0.9222 O   0  0  0  0  0  0  0  0  0  7  0  0
   -2.2292    1.2765   -0.9660 C   0  0  0  0  0  0  0  0  0  8  0  0
   -0.8867    1.5339   -1.4151 N   0  0  0  0  0  0  0  0  0  9  0  0
   -0.0083    2.4919   -0.9572 C   0  0  0  0  0  0  0  0  0 10  0  0
   -0.4186    3.4958   -0.1213 N   0  0  0  0  0  0  0  0  0 22  0  0
   -1.2271    3.2435    0.4480 H   0  0  0  0  0  0  0  0  0 23  0  0
    0.6088    4.2183    0.5909 C   0  0  0  0  0  0  0  0  0 24  0  0
    1.3908    4.4444   -0.1356 H   0  0  0  0  0  0  0  0  0 25  0  0
    0.1786    5.1517    0.9578 H   0  0  0  0  0  0  0  0  0 26  0  0
    1.1803    3.4026    1.7550 C   0  0  0  0  0  0  0  0  0 27  0  0
    1.6094    2.1250    1.3486 O   0  0  0  0  0  0  0  0  0 28  0  0
    2.0948    2.2165    0.5149 H   0  0  0  0  0  0  0  0  0 29  0  0
    0.4138    3.2331    2.5191 H   0  0  0  0  0  0  0  0  0 30  0  0
    1.9987    3.9724    2.2236 H   0  0  0  0  0  0  0  0  0 31  0  0
    1.1859    2.3695   -1.4631 N   0  0  0  0  0  0  0  0  0 11  0  0
    1.1439    1.2690   -2.2808 C   0  0  0  0  0  0  0  0  0 12  0  0
    2.1604    0.6763   -3.0339 C   0  0  0  0  0  0  0  0  0 13  0  0
    3.1405    1.0976   -3.0518 H   0  0  0  0  0  0  0  0  0 21  0  0
    1.8254   -0.4521   -3.7557 C   0  0  0  0  0  0  0  0  0 14  0  0
    2.5808   -0.9313   -4.3619 H   0  0  0  0  0  0  0  0  0 20  0  0
    0.5297   -0.9819   -3.7378 C   0  0  0  0  0  0  0  0  0 15  0  0
    0.3284   -1.8646   -4.3222 H   0  0  0  0  0  0  0  0  0 19  0  0
   -0.4749   -0.4131   -3.0015 C   0  0  0  0  0  0  0  0  0 16  0  0
   -1.4736   -0.8225   -2.9862 H   0  0  0  0  0  0  0  0  0 18  0  0
   -0.1608    0.7162   -2.2631 C   0  0  0  0  0  0  0  0  0 17  0  0
   -2.7652    0.7384   -1.7508 H   0  0  0  0  0  0  0  0  0 32  0  0
   -2.7546    2.2211   -0.8034 H   0  0  0  0  0  0  0  0  0 33  0  0
   -0.3042    0.0459    0.1812 H   0  0  0  0  0  0  0  0  0 34  0  0
   -0.5359   -2.3692    1.4763 C   0  0  0  0  0  0  0  0  0 35  0  0
    0.0142   -3.2334    2.4193 C   0  0  0  0  0  0  0  0  0 36  0  0
    0.0607   -2.9426    3.4585 H   0  0  0  0  0  0  0  0  0 45  0  0
    0.4462   -4.4901    2.0571 C   0  0  0  0  0  0  0  0  0 37  0  0
    0.8548   -5.1584    2.8102 H   0  0  0  0  0  0  0  0  0 44  0  0
    0.3810   -4.9068    0.7348 C   0  0  0  0  0  0  0  0  0 38  0  0
    0.7412   -5.8852    0.4464 H   0  0  0  0  0  0  0  0  0 43  0  0
   -0.1723   -4.0483   -0.2121 C   0  0  0  0  0  0  0  0  0 39  0  0
   -0.2335   -4.3685   -1.2388 H   0  0  0  0  0  0  0  0  0 42  0  0
   -0.6122   -2.7911    0.1549 C   0  0  0  0  0  0  0  0  0 40  0  0
   -1.0492   -2.1474   -0.5914 H   0  0  0  0  0  0  0  0  0 41  0  0
   -2.0301   -1.0597    2.2880 H   0  0  0  0  0  0  0  0  0 46  0  0
  1  2  1  0
  1  3  1  0
  1  4  1  0
  1  5  1  0
  5  6  1  0
  6  7  1  0
  7  8  2  0
  7  9  1  0
  9 10  1  0
 10 11  4  0
 11 12  1  0
 12 13  1  0
 12 14  1  0
 14 15  1  0
 14 16  1  0
 14 17  1  0
 17 18  1  0
 18 19  1  0
 17 20  1  0
 17 21  1  0
 11 22  4  0
 22 23  4  0
 23 24  4  0
 24 25  1  0
 24 26  4  0
 26 27  1  0
 26 28  4  0
 28 29  1  0
 28 30  4  0
 30 31  1  0
 30 32  4  0
  9 33  1  0
  9 34  1  0
  6 35  1  0
  5 36  1  0
 36 37  4  0
 37 38  1  0
 37 39  4  0
 39 40  1  0
 39 41  4  0
 41 42  1  0
 41 43  4  0
 43 44  1  0
 43 45  4  0
 45 46  1  0
  5 47  1  1
 32 10  4  0
 45 36  4  0
 32 23  4  0
M  END
>  <sample_id>  (300)
train::CC(NC(=O)Cn1c(NCCO)nc2ccccc21)c1ccccc1__gen0002

>  <partition>  (300)
BAT_EXTERNAL_CONFIRM

>  <method>  (300)
BA_seed193

>  <candidate>  (300)
primary

$$$$
train::Cc1cc2cc(CNC(=O)NC3CCCCC3)ccc2[nH]1__gen0000
     RDKit          3D

 44 46  0  0  0  0  0  0  0  0999 V2000
    5.3322    1.8977   -4.8548 C   0  0  0  0  0  0  0  0  0  0  0  0
    4.1964    1.9232   -3.8914 C   0  0  0  0  0  0  0  0  0  1  0  0
    2.8898    2.2518   -4.0881 C   0  0  0  0  0  0  0  0  0  2  0  0
    2.4573    2.5664   -5.0185 H   0  0  0  0  0  0  0  0  0 40  0  0
    2.2097    2.1214   -2.8588 C   0  0  0  0  0  0  0  0  0  3  0  0
    0.8908    2.3094   -2.4442 C   0  0  0  0  0  0  0  0  0  4  0  0
    0.1373    2.6290   -3.1390 H   0  0  0  0  0  0  0  0  0 39  0  0
    0.5697    2.0732   -1.1210 C   0  0  0  0  0  0  0  0  0  5  0  0
   -0.8555    2.2559   -0.6330 C   0  0  0  0  0  0  0  0  0 13  0  0
   -1.4164    0.9918   -0.1670 N   0  0  0  0  0  0  0  0  0 14  0  0
   -1.4900    0.7128    1.1507 C   0  0  0  0  0  0  0  0  0 15  0  0
   -1.3465    1.5432    2.0273 O   0  0  0  0  0  0  0  0  0 16  0  0
   -1.8382   -0.5924    1.4335 N   0  0  0  0  0  0  0  0  0 17  0  0
   -1.9687   -1.2464    0.6738 H   0  0  0  0  0  0  0  0  0 18  0  0
   -2.0636   -1.0589    2.7732 C   0  0  2  0  0  0  0  0  0 19  0  0
   -1.7787   -0.2169    3.4128 H   0  0  0  0  0  0  0  0  0 35  0  0
   -1.2052   -2.2892    3.1051 C   0  0  0  0  0  0  0  0  0 20  0  0
   -1.2645   -2.4769    4.1759 H   0  0  0  0  0  0  0  0  0 33  0  0
   -0.1737   -2.0573    2.8577 H   0  0  0  0  0  0  0  0  0 34  0  0
   -1.6673   -3.5254    2.3502 C   0  0  0  0  0  0  0  0  0 21  0  0
   -1.5328   -3.3909    1.2754 H   0  0  0  0  0  0  0  0  0 31  0  0
   -1.0569   -4.3818    2.6535 H   0  0  0  0  0  0  0  0  0 32  0  0
   -3.1313   -3.8178    2.6419 C   0  0  0  0  0  0  0  0  0 22  0  0
   -3.2588   -4.0091    3.7031 H   0  0  0  0  0  0  0  0  0 29  0  0
   -3.4520   -4.7030    2.0893 H   0  0  0  0  0  0  0  0  0 30  0  0
   -3.9911   -2.6123    2.2563 C   0  0  0  0  0  0  0  0  0 23  0  0
   -3.9235   -2.4484    1.1832 H   0  0  0  0  0  0  0  0  0 27  0  0
   -5.0395   -2.8359    2.4823 H   0  0  0  0  0  0  0  0  0 28  0  0
   -3.5460   -1.3637    3.0122 C   0  0  0  0  0  0  0  0  0 24  0  0
   -4.1544   -0.5156    2.7003 H   0  0  0  0  0  0  0  0  0 25  0  0
   -3.7154   -1.5293    4.0767 H   0  0  0  0  0  0  0  0  0 26  0  0
   -1.3732    0.2381   -0.8453 H   0  0  0  0  0  0  0  0  0 36  0  0
   -1.4858    2.6530   -1.4274 H   0  0  0  0  0  0  0  0  0 37  0  0
   -0.8818    2.9247    0.2336 H   0  0  0  0  0  0  0  0  0 38  0  0
    1.5464    1.6622   -0.2079 C   0  0  0  0  0  0  0  0  0  6  0  0
    1.2600    1.5071    0.8200 H   0  0  0  0  0  0  0  0  0 12  0  0
    2.8518    1.4391   -0.5865 C   0  0  0  0  0  0  0  0  0  7  0  0
    3.5957    1.1370    0.1368 H   0  0  0  0  0  0  0  0  0 11  0  0
    3.1774    1.6812   -1.9091 C   0  0  0  0  0  0  0  0  0  8  0  0
    4.3719    1.5873   -2.5788 N   0  0  0  0  0  0  0  0  0  9  0  0
    5.2459    1.2995   -2.1718 H   0  0  0  0  0  0  0  0  0 10  0  0
    5.7457    0.8899   -4.9161 H   0  0  0  0  0  0  0  0  0 41  0  0
    6.1316    2.5726   -4.5253 H   0  0  0  0  0  0  0  0  0 42  0  0
    5.0010    2.2037   -5.8406 H   0  0  0  0  0  0  0  0  0 43  0  0
  1  2  1  0
  2  3  4  0
  3  4  1  0
  3  5  4  0
  5  6  4  0
  6  7  1  0
  6  8  4  0
  8  9  1  0
  9 10  1  0
 10 11  1  0
 11 12  2  0
 11 13  1  0
 13 14  1  0
 13 15  1  0
 15 16  1  1
 15 17  1  0
 17 18  1  0
 17 19  1  0
 17 20  1  0
 20 21  1  0
 20 22  1  0
 20 23  1  0
 23 24  1  0
 23 25  1  0
 23 26  1  0
 26 27  1  0
 26 28  1  0
 26 29  1  0
 29 30  1  0
 29 31  1  0
 10 32  1  0
  9 33  1  0
  9 34  1  0
  8 35  4  0
 35 36  1  0
 35 37  4  0
 37 38  1  0
 37 39  4  0
 39 40  4  0
 40 41  1  0
  1 42  1  0
  1 43  1  0
  1 44  1  0
 40  2  4  0
 39  5  4  0
 29 15  1  0
M  END
>  <sample_id>  (301)
train::Cc1cc2cc(CNC(=O)NC3CCCCC3)ccc2[nH]1__gen0000

>  <partition>  (301)
BAT_EXTERNAL_CONFIRM

>  <method>  (301)
BA_seed193

>  <candidate>  (301)
primary

$$$$
train::Cc1cc2cc(CNC(=O)NC3CCCCC3)ccc2[nH]1__gen0001
     RDKit          3D

 44 46  0  0  0  0  0  0  0  0999 V2000
   -5.2357   -1.3551    3.2376 C   0  0  0  0  0  0  0  0  0  0  0  0
   -4.4642   -0.5654    2.2217 C   0  0  0  0  0  0  0  0  0  1  0  0
   -3.3138   -0.8576    1.5685 C   0  0  0  0  0  0  0  0  0  2  0  0
   -2.7413   -1.7665    1.6354 H   0  0  0  0  0  0  0  0  0 40  0  0
   -3.0092    0.2465    0.7148 C   0  0  0  0  0  0  0  0  0  3  0  0
   -1.9777    0.5214   -0.1610 C   0  0  0  0  0  0  0  0  0  4  0  0
   -1.1938   -0.2056   -0.3536 H   0  0  0  0  0  0  0  0  0 39  0  0
   -1.9863    1.7100   -0.8470 C   0  0  0  0  0  0  0  0  0  5  0  0
   -0.8531    2.0380   -1.7932 C   0  0  0  0  0  0  0  0  0 13  0  0
    0.4070    2.0945   -1.1248 N   0  0  0  0  0  0  0  0  0 14  0  0
    1.2911    1.0487   -1.1900 C   0  0  0  0  0  0  0  0  0 15  0  0
    1.1674    0.1433   -2.0042 O   0  0  0  0  0  0  0  0  0 16  0  0
    2.3391    1.1656   -0.3132 N   0  0  0  0  0  0  0  0  0 17  0  0
    2.2918    1.8671    0.3792 H   0  0  0  0  0  0  0  0  0 18  0  0
    3.4043    0.1698   -0.1813 C   0  0  2  0  0  0  0  0  0 19  0  0
    4.1397    0.6139    0.4973 H   0  0  0  0  0  0  0  0  0 35  0  0
    4.1107   -0.1460   -1.5145 C   0  0  0  0  0  0  0  0  0 20  0  0
    5.1883   -0.0650   -1.3724 H   0  0  0  0  0  0  0  0  0 33  0  0
    3.8117    0.5908   -2.2571 H   0  0  0  0  0  0  0  0  0 34  0  0
    3.7965   -1.5383   -2.0136 C   0  0  0  0  0  0  0  0  0 21  0  0
    2.7125   -1.6223   -2.1877 H   0  0  0  0  0  0  0  0  0 31  0  0
    4.2813   -1.6989   -2.9828 H   0  0  0  0  0  0  0  0  0 32  0  0
    4.2447   -2.6230   -1.0247 C   0  0  0  0  0  0  0  0  0 22  0  0
    3.7491   -3.5551   -1.2496 H   0  0  0  0  0  0  0  0  0 29  0  0
    5.3064   -2.7692   -1.1508 H   0  0  0  0  0  0  0  0  0 30  0  0
    3.9219   -2.2128    0.4263 C   0  0  0  0  0  0  0  0  0 23  0  0
    3.5816   -3.0680    0.9880 H   0  0  0  0  0  0  0  0  0 27  0  0
    4.8163   -1.8139    0.9164 H   0  0  0  0  0  0  0  0  0 28  0  0
    2.8524   -1.1169    0.4766 C   0  0  0  0  0  0  0  0  0 24  0  0
    1.9767   -1.4449   -0.0709 H   0  0  0  0  0  0  0  0  0 25  0  0
    2.5568   -0.9040    1.4932 H   0  0  0  0  0  0  0  0  0 26  0  0
    0.4597    2.7028   -0.3161 H   0  0  0  0  0  0  0  0  0 36  0  0
   -0.7859    1.2757   -2.5588 H   0  0  0  0  0  0  0  0  0 37  0  0
   -1.0335    3.0204   -2.2815 H   0  0  0  0  0  0  0  0  0 38  0  0
   -3.0008    2.6591   -0.6151 C   0  0  0  0  0  0  0  0  0  6  0  0
   -2.9834    3.6041   -1.1466 H   0  0  0  0  0  0  0  0  0 12  0  0
   -4.0397    2.4167    0.2727 C   0  0  0  0  0  0  0  0  0  7  0  0
   -4.8194    3.1351    0.4456 H   0  0  0  0  0  0  0  0  0 11  0  0
   -4.0416    1.2029    0.9306 C   0  0  0  0  0  0  0  0  0  8  0  0
   -4.9045    0.6659    1.8539 N   0  0  0  0  0  0  0  0  0  9  0  0
   -5.7186    1.1299    2.1993 H   0  0  0  0  0  0  0  0  0 10  0  0
   -5.3249   -0.8075    4.1665 H   0  0  0  0  0  0  0  0  0 41  0  0
   -4.7410   -2.3084    3.4268 H   0  0  0  0  0  0  0  0  0 42  0  0
   -6.2387   -1.5779    2.8599 H   0  0  0  0  0  0  0  0  0 43  0  0
  1  2  1  0
  2  3  4  0
  3  4  1  0
  3  5  4  0
  5  6  4  0
  6  7  1  0
  6  8  4  0
  8  9  1  0
  9 10  1  0
 10 11  1  0
 11 12  2  0
 11 13  1  0
 13 14  1  0
 13 15  1  0
 15 16  1  1
 15 17  1  0
 17 18  1  0
 17 19  1  0
 17 20  1  0
 20 21  1  0
 20 22  1  0
 20 23  1  0
 23 24  1  0
 23 25  1  0
 23 26  1  0
 26 27  1  0
 26 28  1  0
 26 29  1  0
 29 30  1  0
 29 31  1  0
 10 32  1  0
  9 33  1  0
  9 34  1  0
  8 35  4  0
 35 36  1  0
 35 37  4  0
 37 38  1  0
 37 39  4  0
 39 40  4  0
 40 41  1  0
  1 42  1  0
  1 43  1  0
  1 44  1  0
 40  2  4  0
 39  5  4  0
 29 15  1  0
M  END
>  <sample_id>  (302)
train::Cc1cc2cc(CNC(=O)NC3CCCCC3)ccc2[nH]1__gen0001

>  <partition>  (302)
BAT_EXTERNAL_CONFIRM

>  <method>  (302)
BA_seed193

>  <candidate>  (302)
primary

$$$$
train::Cc1cc2cc(CNC(=O)NC3CCCCC3)ccc2[nH]1__gen0002
     RDKit          3D

 44 46  0  0  0  0  0  0  0  0999 V2000
    3.6072    6.2719    0.4928 C   0  0  0  0  0  0  0  0  0  0  0  0
    2.9050    5.0545    0.0408 C   0  0  0  0  0  0  0  0  0  1  0  0
    1.9754    4.8708   -0.9496 C   0  0  0  0  0  0  0  0  0  2  0  0
    1.5852    5.6402   -1.5805 H   0  0  0  0  0  0  0  0  0 40  0  0
    1.6456    3.4956   -0.9703 C   0  0  0  0  0  0  0  0  0  3  0  0
    0.7640    2.7272   -1.7392 C   0  0  0  0  0  0  0  0  0  4  0  0
    0.1769    3.1848   -2.5169 H   0  0  0  0  0  0  0  0  0 39  0  0
    0.6991    1.3694   -1.5008 C   0  0  0  0  0  0  0  0  0  5  0  0
   -0.2625    0.5045   -2.2834 C   0  0  0  0  0  0  0  0  0 13  0  0
   -1.3767    0.0763   -1.4964 N   0  0  0  0  0  0  0  0  0 14  0  0
   -1.3631   -1.1184   -0.8244 C   0  0  0  0  0  0  0  0  0 15  0  0
   -0.5084   -1.9537   -1.0532 O   0  0  0  0  0  0  0  0  0 16  0  0
   -2.4069   -1.2629    0.0848 N   0  0  0  0  0  0  0  0  0 17  0  0
   -3.1365   -0.5768   -0.0223 H   0  0  0  0  0  0  0  0  0 18  0  0
   -2.7814   -2.4182    0.8609 C   0  0  2  0  0  0  0  0  0 19  0  0
   -3.7575   -2.1312    1.2886 H   0  0  0  0  0  0  0  0  0 35  0  0
   -1.8381   -2.6325    2.0385 C   0  0  0  0  0  0  0  0  0 20  0  0
   -2.3868   -3.1475    2.8336 H   0  0  0  0  0  0  0  0  0 33  0  0
   -1.5453   -1.6585    2.4434 H   0  0  0  0  0  0  0  0  0 34  0  0
   -0.5899   -3.4395    1.7074 C   0  0  0  0  0  0  0  0  0 21  0  0
   -0.0146   -3.6002    2.6200 H   0  0  0  0  0  0  0  0  0 31  0  0
    0.0146   -2.9074    0.9810 H   0  0  0  0  0  0  0  0  0 32  0  0
   -0.9877   -4.7823    1.1096 C   0  0  0  0  0  0  0  0  0 22  0  0
   -1.6272   -5.3384    1.8062 H   0  0  0  0  0  0  0  0  0 29  0  0
   -0.1056   -5.3884    0.9088 H   0  0  0  0  0  0  0  0  0 30  0  0
   -1.7518   -4.5374   -0.1868 C   0  0  0  0  0  0  0  0  0 23  0  0
   -2.0412   -5.4833   -0.6507 H   0  0  0  0  0  0  0  0  0 27  0  0
   -1.1075   -4.0017   -0.8798 H   0  0  0  0  0  0  0  0  0 28  0  0
   -3.0211   -3.7196    0.0827 C   0  0  0  0  0  0  0  0  0 24  0  0
   -3.6998   -4.3351    0.6659 H   0  0  0  0  0  0  0  0  0 25  0  0
   -3.5134   -3.4760   -0.8723 H   0  0  0  0  0  0  0  0  0 26  0  0
   -1.9562    0.8160   -1.1188 H   0  0  0  0  0  0  0  0  0 36  0  0
   -0.6375    1.0398   -3.1605 H   0  0  0  0  0  0  0  0  0 37  0  0
    0.2431   -0.4090   -2.6130 H   0  0  0  0  0  0  0  0  0 38  0  0
    1.4526    0.7822   -0.4940 C   0  0  0  0  0  0  0  0  0  6  0  0
    1.3690   -0.2907   -0.3293 H   0  0  0  0  0  0  0  0  0 12  0  0
    2.3204    1.5121    0.2968 C   0  0  0  0  0  0  0  0  0  7  0  0
    2.8968    1.0430    1.0783 H   0  0  0  0  0  0  0  0  0 11  0  0
    2.4101    2.8738    0.0488 C   0  0  0  0  0  0  0  0  0  8  0  0
    3.1582    3.8399    0.6401 N   0  0  0  0  0  0  0  0  0  9  0  0
    3.8226    3.7091    1.3878 H   0  0  0  0  0  0  0  0  0 10  0  0
    4.6906    6.1889    0.3614 H   0  0  0  0  0  0  0  0  0 41  0  0
    3.4143    6.4695    1.5468 H   0  0  0  0  0  0  0  0  0 42  0  0
    3.2661    7.1392   -0.0831 H   0  0  0  0  0  0  0  0  0 43  0  0
  1  2  1  0
  2  3  4  0
  3  4  1  0
  3  5  4  0
  5  6  4  0
  6  7  1  0
  6  8  4  0
  8  9  1  0
  9 10  1  0
 10 11  1  0
 11 12  2  0
 11 13  1  0
 13 14  1  0
 13 15  1  0
 15 16  1  1
 15 17  1  0
 17 18  1  0
 17 19  1  0
 17 20  1  0
 20 21  1  0
 20 22  1  0
 20 23  1  0
 23 24  1  0
 23 25  1  0
 23 26  1  0
 26 27  1  0
 26 28  1  0
 26 29  1  0
 29 30  1  0
 29 31  1  0
 10 32  1  0
  9 33  1  0
  9 34  1  0
  8 35  4  0
 35 36  1  0
 35 37  4  0
 37 38  1  0
 37 39  4  0
 39 40  4  0
 40 41  1  0
  1 42  1  0
  1 43  1  0
  1 44  1  0
 40  2  4  0
 39  5  4  0
 29 15  1  0
M  END
>  <sample_id>  (303)
train::Cc1cc2cc(CNC(=O)NC3CCCCC3)ccc2[nH]1__gen0002

>  <partition>  (303)
BAT_EXTERNAL_CONFIRM

>  <method>  (303)
BA_seed193

>  <candidate>  (303)
primary

$$$$
train::CC1CCCCN1CCNC(=O)C1CCN(S(=O)(=O)c2cccc3cccnc23)CC1__gen0000
     RDKit          3D

 63 66  0  0  0  0  0  0  0  0999 V2000
    2.6094    0.6702    0.1898 C   0  0  0  0  0  0  0  0  0  0  0  0
    2.5216    1.5598    0.7970 H   0  0  0  0  0  0  0  0  0  1  0  0
    1.6200    0.2434    0.0164 H   0  0  0  0  0  0  0  0  0  2  0  0
    3.0130    0.9574   -0.7828 H   0  0  0  0  0  0  0  0  0  3  0  0
    3.5183   -0.4038    0.7913 C   0  0  1  0  0  0  0  0  0  4  0  0
    4.5337    0.0126    0.9344 H   0  0  0  0  0  0  0  0  0 62  0  0
    3.0389   -0.9406    2.0685 N   0  0  0  0  0  0  0  0  0  5  0  0
    2.7838    0.0276    3.1267 C   0  0  0  0  0  0  0  0  0 18  0  0
    2.6177    1.0189    2.6969 H   0  0  0  0  0  0  0  0  0 19  0  0
    1.5205   -0.4004    3.8834 C   0  0  0  0  0  0  0  0  0 20  0  0
    0.4822   -0.5816    2.9024 N   0  0  0  0  0  0  0  0  0 21  0  0
   -0.7614   -0.9631    3.1896 C   0  0  0  0  0  0  0  0  0 22  0  0
   -1.1718   -1.1304    4.3078 O   0  0  0  0  0  0  0  0  0 23  0  0
   -1.6728   -1.1207    1.9460 C   0  0  2  0  0  0  0  0  0 24  0  0
   -2.5781   -1.6533    2.2719 H   0  0  0  0  0  0  0  0  0 57  0  0
   -1.0117   -1.8858    0.7907 C   0  0  0  0  0  0  0  0  0 25  0  0
   -0.0679   -1.4088    0.5097 H   0  0  0  0  0  0  0  0  0 55  0  0
   -0.7966   -2.9179    1.0939 H   0  0  0  0  0  0  0  0  0 56  0  0
   -1.9127   -1.8695   -0.4326 C   0  0  0  0  0  0  0  0  0 26  0  0
   -2.8542   -2.4061   -0.2387 H   0  0  0  0  0  0  0  0  0 53  0  0
   -1.4090   -2.3504   -1.2797 H   0  0  0  0  0  0  0  0  0 54  0  0
   -2.2425   -0.5321   -0.8395 N   0  0  0  0  0  0  0  0  0 27  0  0
   -1.0192    0.2853   -1.6358 S   0  0  1  0  0  6  0  0  0 28  0  0
   -0.3926    1.2962   -0.8176 O   0  0  0  0  0  0  0  0  0 29  0  0
   -0.1737   -0.6883   -2.2631 O   0  0  0  0  0  0  0  0  0 30  0  0
   -1.9555    1.0993   -2.9344 C   0  0  0  0  0  0  0  0  0 31  0  0
   -2.0475    0.4591   -4.1489 C   0  0  0  0  0  0  0  0  0 32  0  0
   -1.5011   -0.4609   -4.2662 H   0  0  0  0  0  0  0  0  0 46  0  0
   -2.7841    1.0178   -5.1984 C   0  0  0  0  0  0  0  0  0 33  0  0
   -2.8386    0.5017   -6.1475 H   0  0  0  0  0  0  0  0  0 45  0  0
   -3.4554    2.2095   -5.0186 C   0  0  0  0  0  0  0  0  0 34  0  0
   -4.0115    2.6594   -5.8350 H   0  0  0  0  0  0  0  0  0 44  0  0
   -3.3740    2.8895   -3.7792 C   0  0  0  0  0  0  0  0  0 35  0  0
   -3.9995    4.1331   -3.5486 C   0  0  0  0  0  0  0  0  0 36  0  0
   -4.5791    4.5932   -4.3407 H   0  0  0  0  0  0  0  0  0 43  0  0
   -3.8558    4.7366   -2.3205 C   0  0  0  0  0  0  0  0  0 37  0  0
   -4.3128    5.6850   -2.1083 H   0  0  0  0  0  0  0  0  0 42  0  0
   -3.0950    4.0991   -1.3548 C   0  0  0  0  0  0  0  0  0 38  0  0
   -2.9333    4.5214   -0.3724 H   0  0  0  0  0  0  0  0  0 41  0  0
   -2.4961    2.9457   -1.5127 N   0  0  0  0  0  0  0  0  0 39  0  0
   -2.6111    2.3233   -2.7123 C   0  0  0  0  0  0  0  0  0 40  0  0
   -2.9127    0.2255    0.1904 C   0  0  0  0  0  0  0  0  0 47  0  0
   -3.8911   -0.2390    0.3617 H   0  0  0  0  0  0  0  0  0 51  0  0
   -3.0584    1.2458   -0.1924 H   0  0  0  0  0  0  0  0  0 52  0  0
   -2.0905    0.2839    1.4872 C   0  0  0  0  0  0  0  0  0 48  0  0
   -1.2118    0.9018    1.3008 H   0  0  0  0  0  0  0  0  0 49  0  0
   -2.6768    0.7639    2.2792 H   0  0  0  0  0  0  0  0  0 50  0  0
    0.8097   -0.5285    1.9425 H   0  0  0  0  0  0  0  0  0 58  0  0
    1.6825   -1.3388    4.4262 H   0  0  0  0  0  0  0  0  0 59  0  0
    1.2081    0.3671    4.5891 H   0  0  0  0  0  0  0  0  0 60  0  0
    3.6106    0.0856    3.8298 H   0  0  0  0  0  0  0  0  0 61  0  0
    3.9044   -2.0037    2.5533 C   0  0  0  0  0  0  0  0  0  6  0  0
    4.9399   -1.6513    2.6911 H   0  0  0  0  0  0  0  0  0 16  0  0
    3.5206   -2.3261    3.5281 H   0  0  0  0  0  0  0  0  0 17  0  0
    3.9205   -3.1881    1.6007 C   0  0  0  0  0  0  0  0  0  7  0  0
    2.9107   -3.5831    1.4941 H   0  0  0  0  0  0  0  0  0 14  0  0
    4.5464   -3.9810    1.9991 H   0  0  0  0  0  0  0  0  0 15  0  0
    4.4365   -2.7158    0.2431 C   0  0  0  0  0  0  0  0  0  8  0  0
    4.4070   -3.5422   -0.4659 H   0  0  0  0  0  0  0  0  0 12  0  0
    5.4730   -2.3811    0.3305 H   0  0  0  0  0  0  0  0  0 13  0  0
    3.5835   -1.5511   -0.2337 C   0  0  0  0  0  0  0  0  0  9  0  0
    2.5669   -1.9087   -0.4106 H   0  0  0  0  0  0  0  0  0 10  0  0
    3.9762   -1.1669   -1.1724 H   0  0  0  0  0  0  0  0  0 11  0  0
  1  2  1  0
  1  3  1  0
  1  4  1  0
  1  5  1  0
  5  6  1  1
  5  7  1  0
  7  8  1  0
  8  9  1  0
  8 10  1  0
 10 11  1  0
 11 12  1  0
 12 13  2  0
 12 14  1  0
 14 15  1  6
 14 16  1  0
 16 17  1  0
 16 18  1  0
 16 19  1  0
 19 20  1  0
 19 21  1  0
 19 22  1  0
 22 23  1  0
 23 24  2  0
 23 25  2  0
 23 26  1  1
 26 27  4  0
 27 28  1  0
 27 29  4  0
 29 30  1  0
 29 31  4  0
 31 32  1  0
 31 33  4  0
 33 34  4  0
 34 35  1  0
 34 36  4  0
 36 37  1  0
 36 38  4  0
 38 39  1  0
 38 40  4  0
 40 41  4  0
 22 42  1  0
 42 43  1  0
 42 44  1  0
 42 45  1  0
 45 46  1  0
 45 47  1  0
 11 48  1  0
 10 49  1  0
 10 50  1  0
  8 51  1  0
  7 52  1  0
 52 53  1  0
 52 54  1  0
 52 55  1  0
 55 56  1  0
 55 57  1  0
 55 58  1  0
 58 59  1  0
 58 60  1  0
 58 61  1  0
 61 62  1  0
 61 63  1  0
 61  5  1  0
 45 14  1  0
 41 26  4  0
 41 33  4  0
M  END
>  <sample_id>  (304)
train::CC1CCCCN1CCNC(=O)C1CCN(S(=O)(=O)c2cccc3cccnc23)CC1__gen0000

>  <partition>  (304)
BAT_EXTERNAL_CONFIRM

>  <method>  (304)
BA_seed193

>  <candidate>  (304)
primary

$$$$
train::CC1CCCCN1CCNC(=O)C1CCN(S(=O)(=O)c2cccc3cccnc23)CC1__gen0001
     RDKit          3D

 63 66  0  0  0  0  0  0  0  0999 V2000
   -0.6054   -0.4633    3.8533 C   0  0  0  0  0  0  0  0  0  0  0  0
   -0.4417    0.3161    4.5845 H   0  0  0  0  0  0  0  0  0  1  0  0
   -0.8104   -1.3858    4.4024 H   0  0  0  0  0  0  0  0  0  2  0  0
    0.3082   -0.6223    3.2956 H   0  0  0  0  0  0  0  0  0  3  0  0
   -1.7677   -0.1430    2.9211 C   0  0  1  0  0  0  0  0  0  4  0  0
   -2.6677    0.0250    3.5398 H   0  0  0  0  0  0  0  0  0 62  0  0
   -1.5035    1.0184    2.0732 N   0  0  0  0  0  0  0  0  0  5  0  0
   -0.9993    2.1926    2.7517 C   0  0  0  0  0  0  0  0  0 18  0  0
   -1.4378    3.0807    2.2949 H   0  0  0  0  0  0  0  0  0 19  0  0
    0.5285    2.2680    2.6036 C   0  0  0  0  0  0  0  0  0 20  0  0
    0.9017    1.9659    1.2300 N   0  0  0  0  0  0  0  0  0 21  0  0
    1.4480    2.8953    0.4169 C   0  0  0  0  0  0  0  0  0 22  0  0
    1.8313    3.9735    0.8104 O   0  0  0  0  0  0  0  0  0 23  0  0
    1.6554    2.4503   -1.0398 C   0  0  2  0  0  0  0  0  0 24  0  0
    2.0465    3.3325   -1.5469 H   0  0  0  0  0  0  0  0  0 57  0  0
    0.3464    2.0477   -1.7176 C   0  0  0  0  0  0  0  0  0 25  0  0
   -0.0639    1.1369   -1.2592 H   0  0  0  0  0  0  0  0  0 55  0  0
   -0.4041    2.8328   -1.6161 H   0  0  0  0  0  0  0  0  0 56  0  0
    0.6174    1.8038   -3.1984 C   0  0  0  0  0  0  0  0  0 26  0  0
   -0.2598    1.4128   -3.7119 H   0  0  0  0  0  0  0  0  0 53  0  0
    0.9231    2.7444   -3.6676 H   0  0  0  0  0  0  0  0  0 54  0  0
    1.6672    0.8487   -3.4093 N   0  0  0  0  0  0  0  0  0 27  0  0
    1.2773   -0.6713   -3.8594 S   0  0  2  0  0  6  0  0  0 28  0  0
    2.4881   -1.4018   -4.1243 O   0  0  0  0  0  0  0  0  0 29  0  0
    0.3000   -0.5501   -4.9122 O   0  0  0  0  0  0  0  0  0 30  0  0
    0.4065   -1.5509   -2.5251 C   0  0  0  0  0  0  0  0  0 31  0  0
   -0.9290   -1.7840   -2.7193 C   0  0  0  0  0  0  0  0  0 32  0  0
   -1.3871   -1.3777   -3.6076 H   0  0  0  0  0  0  0  0  0 46  0  0
   -1.6556   -2.5604   -1.8358 C   0  0  0  0  0  0  0  0  0 33  0  0
   -2.7064   -2.7433   -2.0202 H   0  0  0  0  0  0  0  0  0 45  0  0
   -1.0378   -3.1227   -0.7444 C   0  0  0  0  0  0  0  0  0 34  0  0
   -1.5797   -3.7549   -0.0531 H   0  0  0  0  0  0  0  0  0 44  0  0
    0.3291   -2.8852   -0.5033 C   0  0  0  0  0  0  0  0  0 35  0  0
    1.0238   -3.4281    0.6003 C   0  0  0  0  0  0  0  0  0 36  0  0
    0.4815   -4.0240    1.3233 H   0  0  0  0  0  0  0  0  0 43  0  0
    2.3578   -3.1690    0.7498 C   0  0  0  0  0  0  0  0  0 37  0  0
    2.9261   -3.5516    1.5855 H   0  0  0  0  0  0  0  0  0 42  0  0
    2.9931   -2.3769   -0.2083 C   0  0  0  0  0  0  0  0  0 38  0  0
    4.0554   -2.1375   -0.1410 H   0  0  0  0  0  0  0  0  0 41  0  0
    2.3929   -1.8434   -1.2351 N   0  0  0  0  0  0  0  0  0 39  0  0
    1.0755   -2.0837   -1.4144 C   0  0  0  0  0  0  0  0  0 40  0  0
    2.8945    1.0788   -2.6834 C   0  0  0  0  0  0  0  0  0 47  0  0
    3.5504    0.2193   -2.8515 H   0  0  0  0  0  0  0  0  0 51  0  0
    3.3802    1.9743   -3.1005 H   0  0  0  0  0  0  0  0  0 52  0  0
    2.6527    1.3127   -1.1868 C   0  0  0  0  0  0  0  0  0 48  0  0
    2.2546    0.3945   -0.7526 H   0  0  0  0  0  0  0  0  0 49  0  0
    3.5906    1.5591   -0.7000 H   0  0  0  0  0  0  0  0  0 50  0  0
    0.4243    1.1637    0.8432 H   0  0  0  0  0  0  0  0  0 58  0  0
    0.8898    3.2620    2.8308 H   0  0  0  0  0  0  0  0  0 59  0  0
    1.0203    1.5392    3.2601 H   0  0  0  0  0  0  0  0  0 60  0  0
   -1.2736    2.2041    3.8152 H   0  0  0  0  0  0  0  0  0 61  0  0
   -2.6707    1.3190    1.2532 C   0  0  0  0  0  0  0  0  0  6  0  0
   -3.5654    1.4864    1.8814 H   0  0  0  0  0  0  0  0  0 16  0  0
   -2.4755    2.2302    0.6877 H   0  0  0  0  0  0  0  0  0 17  0  0
   -2.9470    0.1769    0.2898 C   0  0  0  0  0  0  0  0  0  7  0  0
   -2.0851    0.0376   -0.3652 H   0  0  0  0  0  0  0  0  0 14  0  0
   -3.8019    0.4235   -0.3377 H   0  0  0  0  0  0  0  0  0 15  0  0
   -3.2030   -1.1013    1.0835 C   0  0  0  0  0  0  0  0  0  8  0  0
   -4.1124   -0.9959    1.6652 H   0  0  0  0  0  0  0  0  0 12  0  0
   -3.3429   -1.9277    0.3892 H   0  0  0  0  0  0  0  0  0 13  0  0
   -2.0073   -1.3504    1.9988 C   0  0  0  0  0  0  0  0  0  9  0  0
   -2.1837   -2.2322    2.6096 H   0  0  0  0  0  0  0  0  0 10  0  0
   -1.1127   -1.4885    1.4037 H   0  0  0  0  0  0  0  0  0 11  0  0
  1  2  1  0
  1  3  1  0
  1  4  1  0
  1  5  1  0
  5  6  1  1
  5  7  1  0
  7  8  1  0
  8  9  1  0
  8 10  1  0
 10 11  1  0
 11 12  1  0
 12 13  2  0
 12 14  1  0
 14 15  1  1
 14 16  1  0
 16 17  1  0
 16 18  1  0
 16 19  1  0
 19 20  1  0
 19 21  1  0
 19 22  1  0
 22 23  1  0
 23 24  2  0
 23 25  2  0
 23 26  1  1
 26 27  4  0
 27 28  1  0
 27 29  4  0
 29 30  1  0
 29 31  4  0
 31 32  1  0
 31 33  4  0
 33 34  4  0
 34 35  1  0
 34 36  4  0
 36 37  1  0
 36 38  4  0
 38 39  1  0
 38 40  4  0
 40 41  4  0
 22 42  1  0
 42 43  1  0
 42 44  1  0
 42 45  1  0
 45 46  1  0
 45 47  1  0
 11 48  1  0
 10 49  1  0
 10 50  1  0
  8 51  1  0
  7 52  1  0
 52 53  1  0
 52 54  1  0
 52 55  1  0
 55 56  1  0
 55 57  1  0
 55 58  1  0
 58 59  1  0
 58 60  1  0
 58 61  1  0
 61 62  1  0
 61 63  1  0
 61  5  1  0
 45 14  1  0
 41 26  4  0
 41 33  4  0
M  END
>  <sample_id>  (305)
train::CC1CCCCN1CCNC(=O)C1CCN(S(=O)(=O)c2cccc3cccnc23)CC1__gen0001

>  <partition>  (305)
BAT_EXTERNAL_CONFIRM

>  <method>  (305)
BA_seed193

>  <candidate>  (305)
primary

$$$$
train::CC1CCCCN1CCNC(=O)C1CCN(S(=O)(=O)c2cccc3cccnc23)CC1__gen0002
     RDKit          3D

 63 66  0  0  0  0  0  0  0  0999 V2000
   -0.0731   -4.0473   -4.6160 C   0  0  0  0  0  0  0  0  0  0  0  0
    0.6879   -4.6280   -5.1172 H   0  0  0  0  0  0  0  0  0  1  0  0
   -0.3991   -4.5704   -3.7260 H   0  0  0  0  0  0  0  0  0  2  0  0
   -0.9019   -3.8946   -5.2830 H   0  0  0  0  0  0  0  0  0  3  0  0
    0.5411   -2.6816   -4.2535 C   0  0  1  0  0  0  0  0  0  4  0  0
    0.8828   -2.2260   -5.1850 H   0  0  0  0  0  0  0  0  0 62  0  0
   -0.4864   -1.7822   -3.7026 N   0  0  0  0  0  0  0  0  0  5  0  0
   -0.1628   -0.3745   -3.8628 C   0  0  0  0  0  0  0  0  0 18  0  0
    0.2495   -0.2211   -4.8534 H   0  0  0  0  0  0  0  0  0 19  0  0
   -1.4211    0.5079   -3.7508 C   0  0  0  0  0  0  0  0  0 20  0  0
   -1.5090    1.0957   -2.4366 N   0  0  0  0  0  0  0  0  0 21  0  0
   -2.3981    2.0366   -2.0583 C   0  0  0  0  0  0  0  0  0 22  0  0
   -3.2531    2.4600   -2.8026 O   0  0  0  0  0  0  0  0  0 23  0  0
   -2.1982    2.5274   -0.6187 C   0  0  2  0  0  0  0  0  0 24  0  0
   -2.9922    3.2438   -0.4200 H   0  0  0  0  0  0  0  0  0 57  0  0
   -0.8424    3.2396   -0.5419 C   0  0  0  0  0  0  0  0  0 25  0  0
   -0.0686    2.6398   -0.9801 H   0  0  0  0  0  0  0  0  0 55  0  0
   -0.9031    4.1868   -1.0904 H   0  0  0  0  0  0  0  0  0 56  0  0
   -0.4525    3.5069    0.9064 C   0  0  0  0  0  0  0  0  0 26  0  0
    0.5629    3.9064    0.9679 H   0  0  0  0  0  0  0  0  0 53  0  0
   -1.1203    4.2397    1.3919 H   0  0  0  0  0  0  0  0  0 54  0  0
   -0.4842    2.3047    1.6947 N   0  0  0  0  0  0  0  0  0 27  0  0
    0.7619    1.2194    1.3772 S   0  0  2  0  0  6  0  0  0 28  0  0
    1.7014    1.8203    0.4652 O   0  0  0  0  0  0  0  0  0 29  0  0
    0.2432   -0.0742    1.0363 O   0  0  0  0  0  0  0  0  0 30  0  0
    1.5899    1.1418    2.9725 C   0  0  0  0  0  0  0  0  0 31  0  0
    2.8436    1.6738    3.0888 C   0  0  0  0  0  0  0  0  0 32  0  0
    3.2821    2.1275    2.2115 H   0  0  0  0  0  0  0  0  0 46  0  0
    3.5372    1.6234    4.3090 C   0  0  0  0  0  0  0  0  0 33  0  0
    4.5242    2.0460    4.3787 H   0  0  0  0  0  0  0  0  0 45  0  0
    2.9541    1.0247    5.4024 C   0  0  0  0  0  0  0  0  0 34  0  0
    3.4691    0.9856    6.3628 H   0  0  0  0  0  0  0  0  0 44  0  0
    1.6607    0.4550    5.3032 C   0  0  0  0  0  0  0  0  0 35  0  0
    1.0241   -0.1765    6.3990 C   0  0  0  0  0  0  0  0  0 36  0  0
    1.5356   -0.2224    7.3543 H   0  0  0  0  0  0  0  0  0 43  0  0
   -0.2357   -0.6982    6.2188 C   0  0  0  0  0  0  0  0  0 37  0  0
   -0.7638   -1.1979    7.0328 H   0  0  0  0  0  0  0  0  0 42  0  0
   -0.8361   -0.5777    4.9659 C   0  0  0  0  0  0  0  0  0 38  0  0
   -1.8331   -0.9915    4.7902 H   0  0  0  0  0  0  0  0  0 41  0  0
   -0.2841    0.0199    3.9380 N   0  0  0  0  0  0  0  0  0 39  0  0
    0.9559    0.5339    4.0718 C   0  0  0  0  0  0  0  0  0 40  0  0
   -1.8002    1.7192    1.7489 C   0  0  0  0  0  0  0  0  0 47  0  0
   -1.7312    0.8213    2.3589 H   0  0  0  0  0  0  0  0  0 51  0  0
   -2.4562    2.4454    2.2431 H   0  0  0  0  0  0  0  0  0 52  0  0
   -2.3308    1.3583    0.3597 C   0  0  0  0  0  0  0  0  0 48  0  0
   -3.3643    1.0348    0.4355 H   0  0  0  0  0  0  0  0  0 49  0  0
   -1.7400    0.5027    0.0185 H   0  0  0  0  0  0  0  0  0 50  0  0
   -0.8416    0.7642   -1.7376 H   0  0  0  0  0  0  0  0  0 58  0  0
   -1.4103    1.3053   -4.4871 H   0  0  0  0  0  0  0  0  0 59  0  0
   -2.3144   -0.1197   -3.9367 H   0  0  0  0  0  0  0  0  0 60  0  0
    0.5847   -0.0422   -3.1287 H   0  0  0  0  0  0  0  0  0 61  0  0
   -0.8607   -2.1588   -2.3681 C   0  0  0  0  0  0  0  0  0  6  0  0
   -1.6032   -1.4441   -1.9965 H   0  0  0  0  0  0  0  0  0 16  0  0
   -1.3937   -3.1170   -2.4209 H   0  0  0  0  0  0  0  0  0 17  0  0
    0.2954   -2.2812   -1.3709 C   0  0  0  0  0  0  0  0  0  7  0  0
   -0.0901   -2.6177   -0.4122 H   0  0  0  0  0  0  0  0  0 14  0  0
    0.7579   -1.3217   -1.2075 H   0  0  0  0  0  0  0  0  0 15  0  0
    1.3358   -3.2612   -1.9271 C   0  0  0  0  0  0  0  0  0  8  0  0
    0.8894   -4.2612   -1.9429 H   0  0  0  0  0  0  0  0  0 12  0  0
    2.2099   -3.2993   -1.2581 H   0  0  0  0  0  0  0  0  0 13  0  0
    1.7524   -2.8158   -3.3248 C   0  0  0  0  0  0  0  0  0  9  0  0
    2.4476   -3.5448   -3.7410 H   0  0  0  0  0  0  0  0  0 10  0  0
    2.2753   -1.8690   -3.2451 H   0  0  0  0  0  0  0  0  0 11  0  0
  1  2  1  0
  1  3  1  0
  1  4  1  0
  1  5  1  0
  5  6  1  6
  5  7  1  0
  7  8  1  0
  8  9  1  0
  8 10  1  0
 10 11  1  0
 11 12  1  0
 12 13  2  0
 12 14  1  0
 14 15  1  6
 14 16  1  0
 16 17  1  0
 16 18  1  0
 16 19  1  0
 19 20  1  0
 19 21  1  0
 19 22  1  0
 22 23  1  0
 23 24  2  0
 23 25  2  0
 23 26  1  1
 26 27  4  0
 27 28  1  0
 27 29  4  0
 29 30  1  0
 29 31  4  0
 31 32  1  0
 31 33  4  0
 33 34  4  0
 34 35  1  0
 34 36  4  0
 36 37  1  0
 36 38  4  0
 38 39  1  0
 38 40  4  0
 40 41  4  0
 22 42  1  0
 42 43  1  0
 42 44  1  0
 42 45  1  0
 45 46  1  0
 45 47  1  0
 11 48  1  0
 10 49  1  0
 10 50  1  0
  8 51  1  0
  7 52  1  0
 52 53  1  0
 52 54  1  0
 52 55  1  0
 55 56  1  0
 55 57  1  0
 55 58  1  0
 58 59  1  0
 58 60  1  0
 58 61  1  0
 61 62  1  0
 61 63  1  0
 61  5  1  0
 45 14  1  0
 41 26  4  0
 41 33  4  0
M  END
>  <sample_id>  (306)
train::CC1CCCCN1CCNC(=O)C1CCN(S(=O)(=O)c2cccc3cccnc23)CC1__gen0002

>  <partition>  (306)
BAT_EXTERNAL_CONFIRM

>  <method>  (306)
BA_seed193

>  <candidate>  (306)
primary

$$$$
train::Cc1ccc2cc3c(nc2c1)OCC3__gen0000
     RDKit          3D

 25 27  0  0  0  0  0  0  0  0999 V2000
   -4.2045    0.9245   -0.4792 C   0  0  0  0  0  0  0  0  0  0  0  0
   -2.7284    0.8724   -0.2619 C   0  0  0  0  0  0  0  0  0  1  0  0
   -2.0174   -0.2927   -0.3898 C   0  0  0  0  0  0  0  0  0  2  0  0
   -2.5212   -1.2073   -0.6782 H   0  0  0  0  0  0  0  0  0 21  0  0
   -0.6265   -0.3511   -0.1886 C   0  0  0  0  0  0  0  0  0  3  0  0
   -0.0130   -1.5215   -0.3429 N   0  0  0  0  0  0  0  0  0  4  0  0
    1.2896   -1.5565   -0.1208 C   0  0  0  0  0  0  0  0  0  5  0  0
    2.0664   -0.4230    0.2225 C   0  0  0  0  0  0  0  0  0  6  0  0
    1.4403    0.7963    0.3806 C   0  0  0  0  0  0  0  0  0  7  0  0
    1.9951    1.6918    0.6407 H   0  0  0  0  0  0  0  0  0 13  0  0
    0.0523    0.8527    0.1630 C   0  0  0  0  0  0  0  0  0  8  0  0
   -0.6843    2.0471    0.3122 C   0  0  0  0  0  0  0  0  0  9  0  0
   -0.1699    2.9566    0.5836 H   0  0  0  0  0  0  0  0  0 12  0  0
   -2.0442    2.0455    0.0966 C   0  0  0  0  0  0  0  0  0 10  0  0
   -2.5970    2.9601    0.1945 H   0  0  0  0  0  0  0  0  0 11  0  0
    3.4936   -0.8526    0.3448 C   0  0  0  0  0  0  0  0  0 14  0  0
    3.9308   -0.6267    1.3118 H   0  0  0  0  0  0  0  0  0 15  0  0
    4.1158   -0.4003   -0.4305 H   0  0  0  0  0  0  0  0  0 16  0  0
    3.3516   -2.3905    0.1272 C   0  0  0  0  0  0  0  0  0 17  0  0
    4.0148   -2.7586   -0.6754 H   0  0  0  0  0  0  0  0  0 18  0  0
    3.5831   -2.9488    1.0350 H   0  0  0  0  0  0  0  0  0 19  0  0
    2.0134   -2.6719   -0.2470 O   0  0  0  0  0  0  0  0  0 20  0  0
   -4.4571    1.6905   -1.2131 H   0  0  0  0  0  0  0  0  0 22  0  0
   -4.5745   -0.0249   -0.8362 H   0  0  0  0  0  0  0  0  0 23  0  0
   -4.7089    1.1890    0.4514 H   0  0  0  0  0  0  0  0  0 24  0  0
  1  2  1  0
  2  3  4  0
  3  4  1  0
  3  5  4  0
  5  6  4  0
  6  7  4  0
  7  8  4  0
  8  9  4  0
  9 10  1  0
  9 11  4  0
 11 12  4  0
 12 13  1  0
 12 14  4  0
 14 15  1  0
  8 16  1  0
 16 17  1  0
 16 18  1  0
 16 19  1  0
 19 20  1  0
 19 21  1  0
 19 22  1  0
  1 23  1  0
  1 24  1  0
  1 25  1  0
 14  2  4  0
 11  5  4  0
 22  7  1  0
M  END
>  <sample_id>  (307)
train::Cc1ccc2cc3c(nc2c1)OCC3__gen0000

>  <partition>  (307)
BAT_EXTERNAL_CONFIRM

>  <method>  (307)
BA_seed193

>  <candidate>  (307)
primary

$$$$
train::Cc1ccc2cc3c(nc2c1)OCC3__gen0001
     RDKit          3D

 25 27  0  0  0  0  0  0  0  0999 V2000
   -3.8222   -0.7533    1.8986 C   0  0  0  0  0  0  0  0  0  0  0  0
   -2.3955   -0.4675    1.5216 C   0  0  0  0  0  0  0  0  0  1  0  0
   -2.0291   -0.4358    0.1979 C   0  0  0  0  0  0  0  0  0  2  0  0
   -2.7595   -0.6071   -0.5792 H   0  0  0  0  0  0  0  0  0 21  0  0
   -0.7102   -0.1741   -0.1930 C   0  0  0  0  0  0  0  0  0  3  0  0
   -0.4082   -0.1596   -1.4982 N   0  0  0  0  0  0  0  0  0  4  0  0
    0.8338    0.1002   -1.8070 C   0  0  0  0  0  0  0  0  0  5  0  0
    1.8946    0.3787   -0.9020 C   0  0  0  0  0  0  0  0  0  6  0  0
    1.5971    0.3826    0.4327 C   0  0  0  0  0  0  0  0  0  7  0  0
    2.3634    0.5845    1.1676 H   0  0  0  0  0  0  0  0  0 13  0  0
    0.2665    0.0927    0.8221 C   0  0  0  0  0  0  0  0  0  8  0  0
   -0.1324    0.0520    2.1796 C   0  0  0  0  0  0  0  0  0  9  0  0
    0.6107    0.2340    2.9377 H   0  0  0  0  0  0  0  0  0 12  0  0
   -1.4329   -0.2150    2.5107 C   0  0  0  0  0  0  0  0  0 10  0  0
   -1.7181   -0.2678    3.5470 H   0  0  0  0  0  0  0  0  0 11  0  0
    3.1305    0.6515   -1.6716 C   0  0  0  0  0  0  0  0  0 14  0  0
    3.9309   -0.0427   -1.4116 H   0  0  0  0  0  0  0  0  0 15  0  0
    3.4970    1.6670   -1.5281 H   0  0  0  0  0  0  0  0  0 16  0  0
    2.6352    0.4213   -3.1464 C   0  0  0  0  0  0  0  0  0 17  0  0
    2.7750    1.3046   -3.7588 H   0  0  0  0  0  0  0  0  0 18  0  0
    3.1681   -0.4181   -3.5962 H   0  0  0  0  0  0  0  0  0 19  0  0
    1.2452    0.1261   -3.0872 O   0  0  0  0  0  0  0  0  0 20  0  0
   -3.9314   -0.7753    2.9896 H   0  0  0  0  0  0  0  0  0 22  0  0
   -4.4672    0.0189    1.4906 H   0  0  0  0  0  0  0  0  0 23  0  0
   -4.1414   -1.6977    1.4835 H   0  0  0  0  0  0  0  0  0 24  0  0
  1  2  1  0
  2  3  4  0
  3  4  1  0
  3  5  4  0
  5  6  4  0
  6  7  4  0
  7  8  4  0
  8  9  4  0
  9 10  1  0
  9 11  4  0
 11 12  4  0
 12 13  1  0
 12 14  4  0
 14 15  1  0
  8 16  1  0
 16 17  1  0
 16 18  1  0
 16 19  1  0
 19 20  1  0
 19 21  1  0
 19 22  1  0
  1 23  1  0
  1 24  1  0
  1 25  1  0
 14  2  4  0
 11  5  4  0
 22  7  1  0
M  END
>  <sample_id>  (308)
train::Cc1ccc2cc3c(nc2c1)OCC3__gen0001

>  <partition>  (308)
BAT_EXTERNAL_CONFIRM

>  <method>  (308)
BA_seed193

>  <candidate>  (308)
primary

$$$$
train::Cc1ccc2cc3c(nc2c1)OCC3__gen0002
     RDKit          3D

 25 27  0  0  0  0  0  0  0  0999 V2000
   -3.3255   -1.9159    2.0196 C   0  0  0  0  0  0  0  0  0  0  0  0
   -2.1332   -1.5024    1.2049 C   0  0  0  0  0  0  0  0  0  1  0  0
   -1.6636   -0.2047    1.2248 C   0  0  0  0  0  0  0  0  0  2  0  0
   -2.1338    0.5494    1.8567 H   0  0  0  0  0  0  0  0  0 21  0  0
   -0.5364    0.1631    0.4840 C   0  0  0  0  0  0  0  0  0  3  0  0
   -0.1160    1.4569    0.5607 N   0  0  0  0  0  0  0  0  0  4  0  0
    0.9190    1.7822   -0.1551 C   0  0  0  0  0  0  0  0  0  5  0  0
    1.6346    0.9080   -1.0047 C   0  0  0  0  0  0  0  0  0  6  0  0
    1.2389   -0.4110   -1.0868 C   0  0  0  0  0  0  0  0  0  7  0  0
    1.7431   -1.1257   -1.7271 H   0  0  0  0  0  0  0  0  0 13  0  0
    0.1181   -0.8084   -0.3370 C   0  0  0  0  0  0  0  0  0  8  0  0
   -0.3843   -2.1126   -0.3446 C   0  0  0  0  0  0  0  0  0  9  0  0
    0.1016   -2.8644   -0.9560 H   0  0  0  0  0  0  0  0  0 12  0  0
   -1.4856   -2.4459    0.4097 C   0  0  0  0  0  0  0  0  0 10  0  0
   -1.8443   -3.4647    0.4001 H   0  0  0  0  0  0  0  0  0 11  0  0
    2.7386    1.6802   -1.6367 C   0  0  0  0  0  0  0  0  0 14  0  0
    2.6893    1.6882   -2.7176 H   0  0  0  0  0  0  0  0  0 15  0  0
    3.7173    1.2794   -1.3491 H   0  0  0  0  0  0  0  0  0 16  0  0
    2.5221    3.0936   -1.0495 C   0  0  0  0  0  0  0  0  0 17  0  0
    3.3940    3.4542   -0.4963 H   0  0  0  0  0  0  0  0  0 18  0  0
    2.2582    3.8269   -1.8173 H   0  0  0  0  0  0  0  0  0 19  0  0
    1.4224    3.0431   -0.1423 O   0  0  0  0  0  0  0  0  0 20  0  0
   -3.0419   -2.6982    2.7219 H   0  0  0  0  0  0  0  0  0 22  0  0
   -3.7293   -1.0636    2.5689 H   0  0  0  0  0  0  0  0  0 23  0  0
   -4.1035   -2.3076    1.3689 H   0  0  0  0  0  0  0  0  0 24  0  0
  1  2  1  0
  2  3  4  0
  3  4  1  0
  3  5  4  0
  5  6  4  0
  6  7  4  0
  7  8  4  0
  8  9  4  0
  9 10  1  0
  9 11  4  0
 11 12  4  0
 12 13  1  0
 12 14  4  0
 14 15  1  0
  8 16  1  0
 16 17  1  0
 16 18  1  0
 16 19  1  0
 19 20  1  0
 19 21  1  0
 19 22  1  0
  1 23  1  0
  1 24  1  0
  1 25  1  0
 14  2  4  0
 11  5  4  0
 22  7  1  0
M  END
>  <sample_id>  (309)
train::Cc1ccc2cc3c(nc2c1)OCC3__gen0002

>  <partition>  (309)
BAT_EXTERNAL_CONFIRM

>  <method>  (309)
BA_seed193

>  <candidate>  (309)
primary

$$$$
train::COc1ccc(C2SCC(=O)Nc3c2c(C)nn3C2CCOC(C)(C)C2)cc1OC__gen0000
     RDKit          3D

 59 62  0  0  0  0  0  0  0  0999 V2000
    1.9720   -5.0874    4.6336 C   0  0  0  0  0  0  0  0  0  0  0  0
    2.1021   -5.9638    5.2678 H   0  0  0  0  0  0  0  0  0  1  0  0
    0.7703   -5.3227    3.9244 O   0  0  0  0  0  0  0  0  0  2  0  0
    0.3760   -4.5142    2.8943 C   0  0  0  0  0  0  0  0  0  3  0  0
   -0.6405   -5.0438    2.1184 C   0  0  0  0  0  0  0  0  0  4  0  0
   -1.0225   -6.0187    2.3857 H   0  0  0  0  0  0  0  0  0 56  0  0
   -1.1563   -4.3599    1.0448 C   0  0  0  0  0  0  0  0  0  5  0  0
   -1.9442   -4.7893    0.4434 H   0  0  0  0  0  0  0  0  0 55  0  0
   -0.6535   -3.1073    0.7087 C   0  0  0  0  0  0  0  0  0  6  0  0
   -1.1691   -2.3863   -0.5048 C   0  0  1  0  0  0  0  0  0 15  0  0
   -2.2016   -2.6808   -0.6666 H   0  0  0  0  0  0  0  0  0 54  0  0
   -1.1407   -0.8998   -0.3866 C   0  0  0  0  0  0  0  0  0 16  0  0
   -0.2669    0.0315   -0.9348 C   0  0  0  0  0  0  0  0  0 17  0  0
   -0.6899    1.2585   -0.5012 N   0  0  0  0  0  0  0  0  0 18  0  0
   -0.1976    2.5451   -0.9382 C   0  0  2  0  0  0  0  0  0 25  0  0
    0.8726    2.4193   -1.1621 H   0  0  0  0  0  0  0  0  0 45  0  0
   -0.3931    3.5961    0.1536 C   0  0  0  0  0  0  0  0  0 26  0  0
    0.1582    3.3239    1.0542 H   0  0  0  0  0  0  0  0  0 27  0  0
   -1.4589    3.6504    0.3825 H   0  0  0  0  0  0  0  0  0 44  0  0
    0.0757    4.9411   -0.3965 C   0  0  0  0  0  0  0  0  0 28  0  0
   -0.1233    5.7406    0.3373 H   0  0  0  0  0  0  0  0  0 29  0  0
    1.1694    4.9164   -0.5548 H   0  0  0  0  0  0  0  0  0 43  0  0
   -0.6016    5.3213   -1.5684 O   0  0  0  0  0  0  0  0  0 30  0  0
   -0.4930    4.4065   -2.6530 C   0  0  2  0  0  0  0  0  0 31  0  0
    0.9362    4.3641   -3.2397 C   0  0  0  0  0  0  0  0  0 32  0  0
    1.2687    5.3853   -3.4041 H   0  0  0  0  0  0  0  0  0 33  0  0
    1.6367    3.8878   -2.5606 H   0  0  0  0  0  0  0  0  0 34  0  0
    0.9403    3.8225   -4.1827 H   0  0  0  0  0  0  0  0  0 35  0  0
   -1.4505    4.9155   -3.7210 C   0  0  0  0  0  0  0  0  0 36  0  0
   -2.4586    5.0072   -3.3279 H   0  0  0  0  0  0  0  0  0 37  0  0
   -1.1208    5.9064   -4.0625 H   0  0  0  0  0  0  0  0  0 38  0  0
   -1.4748    4.2279   -4.5810 H   0  0  0  0  0  0  0  0  0 39  0  0
   -0.9484    3.0123   -2.1884 C   0  0  0  0  0  0  0  0  0 40  0  0
   -0.7818    2.2845   -2.9871 H   0  0  0  0  0  0  0  0  0 41  0  0
   -2.0119    3.0434   -1.9477 H   0  0  0  0  0  0  0  0  0 42  0  0
   -1.7813    1.1563    0.2809 N   0  0  0  0  0  0  0  0  0 19  0  0
   -2.0387   -0.1343    0.3744 C   0  0  0  0  0  0  0  0  0 20  0  0
   -3.2025   -0.6360    1.1687 C   0  0  0  0  0  0  0  0  0 21  0  0
   -2.8708   -1.4607    1.8059 H   0  0  0  0  0  0  0  0  0 22  0  0
   -3.9898   -0.9945    0.5088 H   0  0  0  0  0  0  0  0  0 23  0  0
   -3.5868    0.1802    1.7721 H   0  0  0  0  0  0  0  0  0 24  0  0
    0.8750   -0.0185   -1.7038 N   0  0  0  0  0  0  0  0  0 46  0  0
    1.2083    0.8825   -2.0387 H   0  0  0  0  0  0  0  0  0 53  0  0
    1.7213   -1.0325   -2.0527 C   0  0  0  0  0  0  0  0  0 47  0  0
    2.7666   -0.7889   -2.6356 O   0  0  0  0  0  0  0  0  0 48  0  0
    1.3931   -2.4642   -1.6549 C   0  0  0  0  0  0  0  0  0 49  0  0
    2.1263   -3.0541   -2.2176 H   0  0  0  0  0  0  0  0  0 50  0  0
    1.5344   -2.6833   -0.5962 H   0  0  0  0  0  0  0  0  0 51  0  0
   -0.2770   -2.9456   -2.0339 S   0  0  0  0  0  0  0  0  0 52  0  0
    0.3633   -2.5688    1.4894 C   0  0  0  0  0  0  0  0  0  7  0  0
    0.7258   -1.5914    1.2314 H   0  0  0  0  0  0  0  0  0 14  0  0
    0.8835   -3.2302    2.5930 C   0  0  0  0  0  0  0  0  0  8  0  0
    1.8689   -2.7052    3.3700 O   0  0  0  0  0  0  0  0  0  9  0  0
    2.3176   -1.3809    3.1000 C   0  0  0  0  0  0  0  0  0 10  0  0
    3.0544   -1.1761    3.8806 H   0  0  0  0  0  0  0  0  0 11  0  0
    1.4894   -0.6683    3.1642 H   0  0  0  0  0  0  0  0  0 12  0  0
    2.7992   -1.3273    2.1198 H   0  0  0  0  0  0  0  0  0 13  0  0
    1.9226   -4.1861    5.2472 H   0  0  0  0  0  0  0  0  0 57  0  0
    2.8182   -5.0054    3.9484 H   0  0  0  0  0  0  0  0  0 58  0  0
  1  2  1  0
  1  3  1  0
  3  4  1  0
  4  5  4  0
  5  6  1  0
  5  7  4  0
  7  8  1  0
  7  9  4  0
  9 10  1  0
 10 11  1  6
 10 12  1  0
 12 13  4  0
 13 14  4  0
 14 15  1  0
 15 16  1  1
 15 17  1  0
 17 18  1  0
 17 19  1  0
 17 20  1  0
 20 21  1  0
 20 22  1  0
 20 23  1  0
 23 24  1  0
 24 25  1  1
 25 26  1  0
 25 27  1  0
 25 28  1  0
 24 29  1  0
 29 30  1  0
 29 31  1  0
 29 32  1  0
 24 33  1  0
 33 34  1  0
 33 35  1  0
 14 36  4  0
 36 37  4  0
 37 38  1  0
 38 39  1  0
 38 40  1  0
 38 41  1  0
 13 42  1  0
 42 43  1  0
 42 44  1  0
 44 45  2  0
 44 46  1  0
 46 47  1  0
 46 48  1  0
 46 49  1  0
  9 50  4  0
 50 51  1  0
 50 52  4  0
 52 53  1  0
 53 54  1  0
 54 55  1  0
 54 56  1  0
 54 57  1  0
  1 58  1  0
  1 59  1  0
 52  4  4  0
 49 10  1  0
 37 12  4  0
 33 15  1  0
M  END
>  <sample_id>  (310)
train::COc1ccc(C2SCC(=O)Nc3c2c(C)nn3C2CCOC(C)(C)C2)cc1OC__gen0000

>  <partition>  (310)
BAT_EXTERNAL_CONFIRM

>  <method>  (310)
BA_seed193

>  <candidate>  (310)
primary

$$$$
train::COc1ccc(C2SCC(=O)Nc3c2c(C)nn3C2CCOC(C)(C)C2)cc1OC__gen0001
     RDKit          3D

 59 62  0  0  0  0  0  0  0  0999 V2000
   -4.3863    0.6489    5.5123 C   0  0  0  0  0  0  0  0  0  0  0  0
   -4.2666    0.4894    6.5938 H   0  0  0  0  0  0  0  0  0  1  0  0
   -3.3609   -0.0744    4.9061 O   0  0  0  0  0  0  0  0  0  2  0  0
   -3.2488   -0.0484    3.5473 C   0  0  0  0  0  0  0  0  0  3  0  0
   -4.1008    0.6929    2.7353 C   0  0  0  0  0  0  0  0  0  4  0  0
   -4.9070    1.2716    3.1762 H   0  0  0  0  0  0  0  0  0 56  0  0
   -3.9543    0.7182    1.3682 C   0  0  0  0  0  0  0  0  0  5  0  0
   -4.6149    1.3340    0.7611 H   0  0  0  0  0  0  0  0  0 55  0  0
   -2.9307    0.0186    0.7581 C   0  0  0  0  0  0  0  0  0  6  0  0
   -2.7239    0.0876   -0.7361 C   0  0  2  0  0  0  0  0  0 15  0  0
   -3.4953   -0.4759   -1.2417 H   0  0  0  0  0  0  0  0  0 54  0  0
   -1.3755   -0.3402   -1.2048 C   0  0  0  0  0  0  0  0  0 16  0  0
   -0.1992    0.2948   -0.8723 C   0  0  0  0  0  0  0  0  0 17  0  0
    0.8054   -0.3881   -1.5026 N   0  0  0  0  0  0  0  0  0 18  0  0
    2.2352   -0.1335   -1.4565 C   0  0  1  0  0  0  0  0  0 25  0  0
    2.3771    0.7811   -0.8773 H   0  0  0  0  0  0  0  0  0 45  0  0
    2.9697   -1.2970   -0.7947 C   0  0  0  0  0  0  0  0  0 26  0  0
    2.6643   -1.3953    0.2590 H   0  0  0  0  0  0  0  0  0 27  0  0
    2.7104   -2.2143   -1.3259 H   0  0  0  0  0  0  0  0  0 44  0  0
    4.4614   -1.0422   -0.8946 C   0  0  0  0  0  0  0  0  0 28  0  0
    4.7383   -0.1417   -0.3163 H   0  0  0  0  0  0  0  0  0 29  0  0
    5.0323   -1.8889   -0.5005 H   0  0  0  0  0  0  0  0  0 43  0  0
    4.8989   -0.8948   -2.2180 O   0  0  0  0  0  0  0  0  0 30  0  0
    4.2814    0.1634   -2.9537 C   0  0  2  0  0  0  0  0  0 31  0  0
    4.7543   -0.0176   -4.3950 C   0  0  0  0  0  0  0  0  0 32  0  0
    4.5333   -1.0265   -4.7371 H   0  0  0  0  0  0  0  0  0 33  0  0
    4.2565    0.6970   -5.0499 H   0  0  0  0  0  0  0  0  0 34  0  0
    5.8226    0.1345   -4.4509 H   0  0  0  0  0  0  0  0  0 35  0  0
    4.7304    1.5410   -2.4440 C   0  0  0  0  0  0  0  0  0 36  0  0
    5.8194    1.5653   -2.3699 H   0  0  0  0  0  0  0  0  0 37  0  0
    4.4158    2.3131   -3.1300 H   0  0  0  0  0  0  0  0  0 38  0  0
    4.3245    1.7667   -1.4499 H   0  0  0  0  0  0  0  0  0 39  0  0
    2.7487    0.0350   -2.8921 C   0  0  0  0  0  0  0  0  0 40  0  0
    2.4451   -0.8548   -3.4462 H   0  0  0  0  0  0  0  0  0 41  0  0
    2.2872    0.9101   -3.3551 H   0  0  0  0  0  0  0  0  0 42  0  0
    0.3126   -1.4228   -2.1746 N   0  0  0  0  0  0  0  0  0 19  0  0
   -1.0010   -1.3954   -2.0553 C   0  0  0  0  0  0  0  0  0 20  0  0
   -1.8792   -2.3896   -2.7193 C   0  0  0  0  0  0  0  0  0 21  0  0
   -2.5871   -1.8771   -3.3783 H   0  0  0  0  0  0  0  0  0 22  0  0
   -1.2581   -3.0648   -3.3035 H   0  0  0  0  0  0  0  0  0 23  0  0
   -2.4520   -2.9497   -1.9914 H   0  0  0  0  0  0  0  0  0 24  0  0
    0.0416    1.3208    0.0207 N   0  0  0  0  0  0  0  0  0 46  0  0
    0.9599    1.3651    0.4345 H   0  0  0  0  0  0  0  0  0 53  0  0
   -0.7205    2.3494    0.4454 C   0  0  0  0  0  0  0  0  0 47  0  0
   -0.3606    2.9700    1.4241 O   0  0  0  0  0  0  0  0  0 48  0  0
   -1.9564    2.8678   -0.2806 C   0  0  0  0  0  0  0  0  0 49  0  0
   -2.4046    3.3593    0.5663 H   0  0  0  0  0  0  0  0  0 50  0  0
   -1.8579    3.6577   -1.0336 H   0  0  0  0  0  0  0  0  0 51  0  0
   -2.9714    1.7911   -1.3582 S   0  0  0  0  0  0  0  0  0 52  0  0
   -2.0842   -0.7382    1.5509 C   0  0  0  0  0  0  0  0  0  7  0  0
   -1.2775   -1.3195    1.1131 H   0  0  0  0  0  0  0  0  0 14  0  0
   -2.2075   -0.7860    2.9265 C   0  0  0  0  0  0  0  0  0  8  0  0
   -1.2827   -1.5638    3.5363 O   0  0  0  0  0  0  0  0  0  9  0  0
   -1.2855   -1.8005    4.9154 C   0  0  0  0  0  0  0  0  0 10  0  0
   -2.2378   -2.2902    5.2322 H   0  0  0  0  0  0  0  0  0 11  0  0
   -0.4356   -2.4656    5.0958 H   0  0  0  0  0  0  0  0  0 12  0  0
   -1.1447   -0.8933    5.4982 H   0  0  0  0  0  0  0  0  0 13  0  0
   -4.2848    1.7339    5.3347 H   0  0  0  0  0  0  0  0  0 57  0  0
   -5.3734    0.3119    5.1983 H   0  0  0  0  0  0  0  0  0 58  0  0
  1  2  1  0
  1  3  1  0
  3  4  1  0
  4  5  4  0
  5  6  1  0
  5  7  4  0
  7  8  1  0
  7  9  4  0
  9 10  1  0
 10 11  1  1
 10 12  1  0
 12 13  4  0
 13 14  4  0
 14 15  1  0
 15 16  1  1
 15 17  1  0
 17 18  1  0
 17 19  1  0
 17 20  1  0
 20 21  1  0
 20 22  1  0
 20 23  1  0
 23 24  1  0
 24 25  1  1
 25 26  1  0
 25 27  1  0
 25 28  1  0
 24 29  1  0
 29 30  1  0
 29 31  1  0
 29 32  1  0
 24 33  1  0
 33 34  1  0
 33 35  1  0
 14 36  4  0
 36 37  4  0
 37 38  1  0
 38 39  1  0
 38 40  1  0
 38 41  1  0
 13 42  1  0
 42 43  1  0
 42 44  1  0
 44 45  2  0
 44 46  1  0
 46 47  1  0
 46 48  1  0
 46 49  1  0
  9 50  4  0
 50 51  1  0
 50 52  4  0
 52 53  1  0
 53 54  1  0
 54 55  1  0
 54 56  1  0
 54 57  1  0
  1 58  1  0
  1 59  1  0
 52  4  4  0
 49 10  1  0
 37 12  4  0
 33 15  1  0
M  END
>  <sample_id>  (311)
train::COc1ccc(C2SCC(=O)Nc3c2c(C)nn3C2CCOC(C)(C)C2)cc1OC__gen0001

>  <partition>  (311)
BAT_EXTERNAL_CONFIRM

>  <method>  (311)
BA_seed193

>  <candidate>  (311)
primary

$$$$
train::COc1ccc(C2SCC(=O)Nc3c2c(C)nn3C2CCOC(C)(C)C2)cc1OC__gen0002
     RDKit          3D

 59 62  0  0  0  0  0  0  0  0999 V2000
   -1.9848   -6.8318    2.0298 C   0  0  0  0  0  0  0  0  0  0  0  0
   -2.8546   -7.0837    1.4148 H   0  0  0  0  0  0  0  0  0  1  0  0
   -1.0918   -5.9960    1.3573 O   0  0  0  0  0  0  0  0  0  2  0  0
   -1.5213   -4.7750    0.9333 C   0  0  0  0  0  0  0  0  0  3  0  0
   -2.8024   -4.2697    1.1371 C   0  0  0  0  0  0  0  0  0  4  0  0
   -3.5409   -4.8591    1.6610 H   0  0  0  0  0  0  0  0  0 56  0  0
   -3.1526   -3.0127    0.6730 C   0  0  0  0  0  0  0  0  0  5  0  0
   -4.1572   -2.6529    0.8389 H   0  0  0  0  0  0  0  0  0 55  0  0
   -2.2215   -2.2347   -0.0191 C   0  0  0  0  0  0  0  0  0  6  0  0
   -2.5857   -0.8763   -0.5392 C   0  0  1  0  0  0  0  0  0 15  0  0
   -3.5911   -0.6131   -0.2295 H   0  0  0  0  0  0  0  0  0 54  0  0
   -1.6021    0.1601   -0.1125 C   0  0  0  0  0  0  0  0  0 16  0  0
   -0.8209    1.0400   -0.8316 C   0  0  0  0  0  0  0  0  0 17  0  0
   -0.0912    1.7359    0.0800 N   0  0  0  0  0  0  0  0  0 18  0  0
    0.8690    2.7961   -0.1619 C   0  0  1  0  0  0  0  0  0 25  0  0
    0.7410    3.1444   -1.1948 H   0  0  0  0  0  0  0  0  0 45  0  0
    0.5882    3.9729    0.7731 C   0  0  0  0  0  0  0  0  0 26  0  0
   -0.3973    4.4112    0.5825 H   0  0  0  0  0  0  0  0  0 27  0  0
    0.6244    3.6286    1.8068 H   0  0  0  0  0  0  0  0  0 44  0  0
    1.6639    5.0451    0.5407 C   0  0  0  0  0  0  0  0  0 28  0  0
    1.5467    5.8701    1.2521 H   0  0  0  0  0  0  0  0  0 29  0  0
    1.5690    5.4657   -0.4784 H   0  0  0  0  0  0  0  0  0 43  0  0
    2.9549    4.5372    0.7464 O   0  0  0  0  0  0  0  0  0 30  0  0
    3.3235    3.4222   -0.0547 C   0  0  1  0  0  0  0  0  0 31  0  0
    3.5035    3.8021   -1.5336 C   0  0  0  0  0  0  0  0  0 32  0  0
    3.9080    2.9589   -2.0886 H   0  0  0  0  0  0  0  0  0 33  0  0
    4.1612    4.6647   -1.6207 H   0  0  0  0  0  0  0  0  0 34  0  0
    2.5548    4.0573   -1.9844 H   0  0  0  0  0  0  0  0  0 35  0  0
    4.6632    2.9573    0.5012 C   0  0  0  0  0  0  0  0  0 36  0  0
    5.4125    3.7253    0.4010 H   0  0  0  0  0  0  0  0  0 37  0  0
    4.5501    2.7245    1.5680 H   0  0  0  0  0  0  0  0  0 38  0  0
    5.0013    2.0614   -0.0113 H   0  0  0  0  0  0  0  0  0 39  0  0
    2.2907    2.2923    0.1158 C   0  0  0  0  0  0  0  0  0 40  0  0
    2.5318    1.4841   -0.5767 H   0  0  0  0  0  0  0  0  0 41  0  0
    2.3196    1.9162    1.1316 H   0  0  0  0  0  0  0  0  0 42  0  0
   -0.3943    1.3828    1.3435 N   0  0  0  0  0  0  0  0  0 19  0  0
   -1.2933    0.4304    1.2429 C   0  0  0  0  0  0  0  0  0 20  0  0
   -1.8417   -0.2331    2.4593 C   0  0  0  0  0  0  0  0  0 21  0  0
   -1.5156    0.3104    3.3324 H   0  0  0  0  0  0  0  0  0 22  0  0
   -2.9272   -0.2709    2.4212 H   0  0  0  0  0  0  0  0  0 23  0  0
   -1.4927   -1.2678    2.5077 H   0  0  0  0  0  0  0  0  0 24  0  0
   -0.6287    1.2796   -2.1702 N   0  0  0  0  0  0  0  0  0 46  0  0
    0.2735    1.6464   -2.4469 H   0  0  0  0  0  0  0  0  0 53  0  0
   -1.5341    1.2279   -3.2007 C   0  0  0  0  0  0  0  0  0 47  0  0
   -1.2069    1.6217   -4.3003 O   0  0  0  0  0  0  0  0  0 48  0  0
   -2.8676    0.6307   -2.8892 C   0  0  0  0  0  0  0  0  0 49  0  0
   -3.4328    1.1139   -2.0955 H   0  0  0  0  0  0  0  0  0 50  0  0
   -3.4204    0.7130   -3.8388 H   0  0  0  0  0  0  0  0  0 51  0  0
   -2.6477   -1.1023   -2.3622 S   0  0  0  0  0  0  0  0  0 52  0  0
   -0.9474   -2.7281   -0.1932 C   0  0  0  0  0  0  0  0  0  7  0  0
   -0.2229   -2.0965   -0.6918 H   0  0  0  0  0  0  0  0  0 14  0  0
   -0.5721   -3.9867    0.2575 C   0  0  0  0  0  0  0  0  0  8  0  0
    0.6573   -4.5365    0.1144 O   0  0  0  0  0  0  0  0  0  9  0  0
    1.6395   -3.7915   -0.5778 C   0  0  0  0  0  0  0  0  0 10  0  0
    1.8812   -2.8668   -0.0658 H   0  0  0  0  0  0  0  0  0 11  0  0
    1.3407   -3.5836   -1.6104 H   0  0  0  0  0  0  0  0  0 12  0  0
    2.5314   -4.4390   -0.5849 H   0  0  0  0  0  0  0  0  0 13  0  0
   -2.3155   -6.3845    2.9789 H   0  0  0  0  0  0  0  0  0 57  0  0
   -1.4243   -7.7379    2.2622 H   0  0  0  0  0  0  0  0  0 58  0  0
  1  2  1  0
  1  3  1  0
  3  4  1  0
  4  5  4  0
  5  6  1  0
  5  7  4  0
  7  8  1  0
  7  9  4  0
  9 10  1  0
 10 11  1  1
 10 12  1  0
 12 13  4  0
 13 14  4  0
 14 15  1  0
 15 16  1  6
 15 17  1  0
 17 18  1  0
 17 19  1  0
 17 20  1  0
 20 21  1  0
 20 22  1  0
 20 23  1  0
 23 24  1  0
 24 25  1  6
 25 26  1  0
 25 27  1  0
 25 28  1  0
 24 29  1  0
 29 30  1  0
 29 31  1  0
 29 32  1  0
 24 33  1  0
 33 34  1  0
 33 35  1  0
 14 36  4  0
 36 37  4  0
 37 38  1  0
 38 39  1  0
 38 40  1  0
 38 41  1  0
 13 42  1  0
 42 43  1  0
 42 44  1  0
 44 45  2  0
 44 46  1  0
 46 47  1  0
 46 48  1  0
 46 49  1  0
  9 50  4  0
 50 51  1  0
 50 52  4  0
 52 53  1  0
 53 54  1  0
 54 55  1  0
 54 56  1  0
 54 57  1  0
  1 58  1  0
  1 59  1  0
 52  4  4  0
 49 10  1  0
 37 12  4  0
 33 15  1  0
M  END
>  <sample_id>  (312)
train::COc1ccc(C2SCC(=O)Nc3c2c(C)nn3C2CCOC(C)(C)C2)cc1OC__gen0002

>  <partition>  (312)
BAT_EXTERNAL_CONFIRM

>  <method>  (312)
BA_seed193

>  <candidate>  (312)
primary

$$$$
train::C_C(=N_NC(=O)CNC(=O)_C=C_c1ccccc1)c1ccco1__gen0000
     RDKit          3D

 40 41  0  0  0  0  0  0  0  0999 V2000
   -0.8227   -5.4772   -2.3531 C   0  0  0  0  0  0  0  0  0  0  0  0
   -1.0831   -4.6107   -1.1515 C   0  0  0  0  0  0  0  0  0  1  0  0
   -0.5451   -3.4572   -0.9566 N   0  0  0  0  0  0  0  0  0  2  0  0
    0.2918   -2.9249   -1.8379 N   0  0  0  0  0  0  0  0  0  3  0  0
    0.8581   -1.7001   -1.6230 C   0  0  0  0  0  0  0  0  0  4  0  0
    1.6164   -1.1920   -2.4375 O   0  0  0  0  0  0  0  0  0  5  0  0
    0.4984   -1.0461   -0.3019 C   0  0  0  0  0  0  0  0  0  6  0  0
    1.0708    0.2759   -0.2291 N   0  0  0  0  0  0  0  0  0  7  0  0
    0.4788    1.2625    0.4631 C   0  0  0  0  0  0  0  0  0  8  0  0
   -0.4620    1.0471    1.2271 O   0  0  0  0  0  0  0  0  0  9  0  0
    1.0983    2.5810    0.2749 C   0  0  0  0  0  0  0  0  0 10  0  0
    0.6496    3.6431    0.9865 C   0  0  0  0  0  0  0  0  0 11  0  0
    1.1152    5.0171    0.9249 C   0  0  0  0  0  0  0  0  0 12  0  0
    2.1193    5.4385    0.0598 C   0  0  0  0  0  0  0  0  0 13  0  0
    2.5899    4.7289   -0.6120 H   0  0  0  0  0  0  0  0  0 22  0  0
    2.5454    6.7477    0.0648 C   0  0  0  0  0  0  0  0  0 14  0  0
    3.3181    7.0594   -0.6152 H   0  0  0  0  0  0  0  0  0 21  0  0
    1.9528    7.6709    0.9058 C   0  0  0  0  0  0  0  0  0 15  0  0
    2.2817    8.7026    0.9083 H   0  0  0  0  0  0  0  0  0 20  0  0
    0.9537    7.2513    1.7826 C   0  0  0  0  0  0  0  0  0 16  0  0
    0.4955    7.9762    2.4407 H   0  0  0  0  0  0  0  0  0 19  0  0
    0.5312    5.9406    1.7907 C   0  0  0  0  0  0  0  0  0 17  0  0
   -0.2474    5.6385    2.4641 H   0  0  0  0  0  0  0  0  0 18  0  0
   -0.1681    3.4245    1.6584 H   0  0  0  0  0  0  0  0  0 23  0  0
    1.9155    2.6573   -0.4280 H   0  0  0  0  0  0  0  0  0 24  0  0
    1.7539    0.4691   -0.9648 H   0  0  0  0  0  0  0  0  0 25  0  0
    0.8596   -1.6764    0.5107 H   0  0  0  0  0  0  0  0  0 26  0  0
   -0.5909   -0.9823   -0.2113 H   0  0  0  0  0  0  0  0  0 27  0  0
    0.5285   -3.3980   -2.7130 H   0  0  0  0  0  0  0  0  0 28  0  0
   -1.9629   -5.0891   -0.1319 C   0  0  0  0  0  0  0  0  0 29  0  0
   -2.3740   -4.4986    1.0486 C   0  0  0  0  0  0  0  0  0 30  0  0
   -2.0534   -3.5455    1.4206 H   0  0  0  0  0  0  0  0  0 36  0  0
   -3.2801   -5.4010    1.6459 C   0  0  0  0  0  0  0  0  0 31  0  0
   -3.7975   -5.2907    2.5859 H   0  0  0  0  0  0  0  0  0 35  0  0
   -3.3659   -6.4694    0.8050 C   0  0  0  0  0  0  0  0  0 32  0  0
   -3.9318   -7.3859    0.8504 H   0  0  0  0  0  0  0  0  0 34  0  0
   -2.5888   -6.2840   -0.2847 O   0  0  0  0  0  0  0  0  0 33  0  0
   -1.1105   -4.9721   -3.2658 H   0  0  0  0  0  0  0  0  0 37  0  0
    0.2416   -5.7249   -2.4215 H   0  0  0  0  0  0  0  0  0 38  0  0
   -1.3799   -6.4059   -2.2798 H   0  0  0  0  0  0  0  0  0 39  0  0
  1  2  1  0
  2  3  2  0
  3  4  1  0
  4  5  1  0
  5  6  2  0
  5  7  1  0
  7  8  1  0
  8  9  1  0
  9 10  2  0
  9 11  1  0
 11 12  2  0
 12 13  1  0
 13 14  4  0
 14 15  1  0
 14 16  4  0
 16 17  1  0
 16 18  4  0
 18 19  1  0
 18 20  4  0
 20 21  1  0
 20 22  4  0
 22 23  1  0
 12 24  1  0
 11 25  1  0
  8 26  1  0
  7 27  1  0
  7 28  1  0
  4 29  1  0
  2 30  1  0
 30 31  4  0
 31 32  1  0
 31 33  4  0
 33 34  1  0
 33 35  4  0
 35 36  1  0
 35 37  4  0
  1 38  1  0
  1 39  1  0
  1 40  1  0
 22 13  4  0
 37 30  4  0
M  END
>  <sample_id>  (313)
train::C_C(=N_NC(=O)CNC(=O)_C=C_c1ccccc1)c1ccco1__gen0000

>  <partition>  (313)
BAT_EXTERNAL_CONFIRM

>  <method>  (313)
BA_seed193

>  <candidate>  (313)
primary

$$$$
train::C_C(=N_NC(=O)CNC(=O)_C=C_c1ccccc1)c1ccco1__gen0001
     RDKit          3D

 40 41  0  0  0  0  0  0  0  0999 V2000
   -1.3309   -5.1635   -0.2389 C   0  0  0  0  0  0  0  0  0  0  0  0
   -0.6234   -3.8589   -0.4953 C   0  0  0  0  0  0  0  0  0  1  0  0
   -0.4416   -3.5416   -1.7172 N   0  0  0  0  0  0  0  0  0  2  0  0
    0.2503   -2.4846   -2.1126 N   0  0  0  0  0  0  0  0  0  3  0  0
    0.2657   -2.0798   -3.4175 C   0  0  0  0  0  0  0  0  0  4  0  0
   -0.3061   -2.6352   -4.3229 O   0  0  0  0  0  0  0  0  0  5  0  0
    1.0908   -0.8060   -3.6066 C   0  0  0  0  0  0  0  0  0  6  0  0
    0.5538    0.3067   -2.8694 N   0  0  0  0  0  0  0  0  0  7  0  0
    0.9614    0.5920   -1.6087 C   0  0  0  0  0  0  0  0  0  8  0  0
    1.8140   -0.0758   -1.0450 O   0  0  0  0  0  0  0  0  0  9  0  0
    0.3043    1.7726   -1.0066 C   0  0  0  0  0  0  0  0  0 10  0  0
    0.6686    2.1820    0.2234 C   0  0  0  0  0  0  0  0  0 11  0  0
    0.1311    3.2944    0.9779 C   0  0  0  0  0  0  0  0  0 12  0  0
    0.7845    3.6738    2.1505 C   0  0  0  0  0  0  0  0  0 13  0  0
    1.6577    3.1398    2.4843 H   0  0  0  0  0  0  0  0  0 22  0  0
    0.3248    4.7393    2.8974 C   0  0  0  0  0  0  0  0  0 14  0  0
    0.8274    5.0264    3.8187 H   0  0  0  0  0  0  0  0  0 21  0  0
   -0.7994    5.4514    2.4850 C   0  0  0  0  0  0  0  0  0 15  0  0
   -1.1648    6.2862    3.0689 H   0  0  0  0  0  0  0  0  0 20  0  0
   -1.4495    5.0837    1.3237 C   0  0  0  0  0  0  0  0  0 16  0  0
   -2.3238    5.6378    0.9999 H   0  0  0  0  0  0  0  0  0 19  0  0
   -0.9903    4.0231    0.5738 C   0  0  0  0  0  0  0  0  0 17  0  0
   -1.5131    3.7515   -0.3385 H   0  0  0  0  0  0  0  0  0 18  0  0
    1.4658    1.6210    0.7029 H   0  0  0  0  0  0  0  0  0 23  0  0
   -0.4603    2.2741   -1.5851 H   0  0  0  0  0  0  0  0  0 24  0  0
   -0.2169    0.8071   -3.2835 H   0  0  0  0  0  0  0  0  0 25  0  0
    1.1324   -0.5682   -4.6720 H   0  0  0  0  0  0  0  0  0 26  0  0
    2.1053   -0.9886   -3.2377 H   0  0  0  0  0  0  0  0  0 27  0  0
    0.7951   -1.9357   -1.4396 H   0  0  0  0  0  0  0  0  0 28  0  0
   -0.2362   -3.1090    0.6734 C   0  0  0  0  0  0  0  0  0 29  0  0
   -0.2484   -3.4466    2.0085 C   0  0  0  0  0  0  0  0  0 30  0  0
   -0.5334   -4.4044    2.4225 H   0  0  0  0  0  0  0  0  0 36  0  0
    0.2106   -2.3255    2.7216 C   0  0  0  0  0  0  0  0  0 31  0  0
    0.3389   -2.2343    3.7753 H   0  0  0  0  0  0  0  0  0 35  0  0
    0.4564   -1.3680    1.7895 C   0  0  0  0  0  0  0  0  0 32  0  0
    0.8063   -0.3531    1.8550 H   0  0  0  0  0  0  0  0  0 34  0  0
    0.1916   -1.8235    0.5616 O   0  0  0  0  0  0  0  0  0 33  0  0
   -0.6250   -5.9054    0.1201 H   0  0  0  0  0  0  0  0  0 37  0  0
   -2.0891   -5.0354    0.5230 H   0  0  0  0  0  0  0  0  0 38  0  0
   -1.7848   -5.5197   -1.1596 H   0  0  0  0  0  0  0  0  0 39  0  0
  1  2  1  0
  2  3  2  0
  3  4  1  0
  4  5  1  0
  5  6  2  0
  5  7  1  0
  7  8  1  0
  8  9  1  0
  9 10  2  0
  9 11  1  0
 11 12  2  0
 12 13  1  0
 13 14  4  0
 14 15  1  0
 14 16  4  0
 16 17  1  0
 16 18  4  0
 18 19  1  0
 18 20  4  0
 20 21  1  0
 20 22  4  0
 22 23  1  0
 12 24  1  0
 11 25  1  0
  8 26  1  0
  7 27  1  0
  7 28  1  0
  4 29  1  0
  2 30  1  0
 30 31  4  0
 31 32  1  0
 31 33  4  0
 33 34  1  0
 33 35  4  0
 35 36  1  0
 35 37  4  0
  1 38  1  0
  1 39  1  0
  1 40  1  0
 22 13  4  0
 37 30  4  0
M  END
>  <sample_id>  (314)
train::C_C(=N_NC(=O)CNC(=O)_C=C_c1ccccc1)c1ccco1__gen0001

>  <partition>  (314)
BAT_EXTERNAL_CONFIRM

>  <method>  (314)
BA_seed193

>  <candidate>  (314)
primary

$$$$
train::C_C(=N_NC(=O)CNC(=O)_C=C_c1ccccc1)c1ccco1__gen0002
     RDKit          3D

 40 41  0  0  0  0  0  0  0  0999 V2000
   -0.8916    1.2448   -3.5743 C   0  0  0  0  0  0  0  0  0  0  0  0
   -2.2300    0.6860   -3.1821 C   0  0  0  0  0  0  0  0  0  1  0  0
   -2.4093   -0.3865   -2.5061 N   0  0  0  0  0  0  0  0  0  2  0  0
   -1.3621   -1.1000   -2.0584 N   0  0  0  0  0  0  0  0  0  3  0  0
   -1.4998   -2.2731   -1.4017 C   0  0  0  0  0  0  0  0  0  4  0  0
   -2.5596   -2.7788   -1.1265 O   0  0  0  0  0  0  0  0  0  5  0  0
   -0.1462   -2.8452   -0.9736 C   0  0  0  0  0  0  0  0  0  6  0  0
    0.2465   -2.1983    0.2524 N   0  0  0  0  0  0  0  0  0  7  0  0
    1.2736   -1.3214    0.2967 C   0  0  0  0  0  0  0  0  0  8  0  0
    1.9771   -1.0847   -0.6648 O   0  0  0  0  0  0  0  0  0  9  0  0
    1.5296   -0.7298    1.6158 C   0  0  0  0  0  0  0  0  0 10  0  0
    2.7366   -0.7098    2.1543 C   0  0  0  0  0  0  0  0  0 11  0  0
    3.1207   -0.1675    3.4484 C   0  0  0  0  0  0  0  0  0 12  0  0
    2.2696    0.6879    4.1831 C   0  0  0  0  0  0  0  0  0 13  0  0
    1.3364    1.0140    3.7406 H   0  0  0  0  0  0  0  0  0 22  0  0
    2.6423    1.1606    5.4133 C   0  0  0  0  0  0  0  0  0 14  0  0
    1.9811    1.8401    5.9354 H   0  0  0  0  0  0  0  0  0 21  0  0
    3.8680    0.8072    5.9567 C   0  0  0  0  0  0  0  0  0 15  0  0
    4.1424    1.1786    6.9253 H   0  0  0  0  0  0  0  0  0 20  0  0
    4.7117   -0.0354    5.2508 C   0  0  0  0  0  0  0  0  0 16  0  0
    5.6588   -0.3029    5.6725 H   0  0  0  0  0  0  0  0  0 19  0  0
    4.3328   -0.5153    4.0207 C   0  0  0  0  0  0  0  0  0 17  0  0
    5.0093   -1.1696    3.4714 H   0  0  0  0  0  0  0  0  0 18  0  0
    3.5486   -1.1572    1.5845 H   0  0  0  0  0  0  0  0  0 23  0  0
    0.6750   -0.3143    2.1490 H   0  0  0  0  0  0  0  0  0 24  0  0
   -0.3036   -2.3776    1.0712 H   0  0  0  0  0  0  0  0  0 25  0  0
   -0.2520   -3.9197   -0.8096 H   0  0  0  0  0  0  0  0  0 26  0  0
    0.6304   -2.6525   -1.7025 H   0  0  0  0  0  0  0  0  0 27  0  0
   -0.4175   -0.7508   -2.2341 H   0  0  0  0  0  0  0  0  0 28  0  0
   -3.4137    1.3638   -3.5899 C   0  0  0  0  0  0  0  0  0 29  0  0
   -4.7401    1.0236   -3.4352 C   0  0  0  0  0  0  0  0  0 30  0  0
   -5.1085    0.1536   -2.9234 H   0  0  0  0  0  0  0  0  0 36  0  0
   -5.4989    2.0569   -4.0336 C   0  0  0  0  0  0  0  0  0 31  0  0
   -6.5620    2.1198   -4.0859 H   0  0  0  0  0  0  0  0  0 35  0  0
   -4.6011    2.9406   -4.5273 C   0  0  0  0  0  0  0  0  0 32  0  0
   -4.7269    3.8694   -5.0367 H   0  0  0  0  0  0  0  0  0 34  0  0
   -3.3467    2.5395   -4.2666 O   0  0  0  0  0  0  0  0  0 33  0  0
   -0.9958    2.1342   -4.1889 H   0  0  0  0  0  0  0  0  0 37  0  0
   -0.3327    0.4933   -4.1434 H   0  0  0  0  0  0  0  0  0 38  0  0
   -0.2923    1.4762   -2.6777 H   0  0  0  0  0  0  0  0  0 39  0  0
  1  2  1  0
  2  3  2  0
  3  4  1  0
  4  5  1  0
  5  6  2  0
  5  7  1  0
  7  8  1  0
  8  9  1  0
  9 10  2  0
  9 11  1  0
 11 12  2  0
 12 13  1  0
 13 14  4  0
 14 15  1  0
 14 16  4  0
 16 17  1  0
 16 18  4  0
 18 19  1  0
 18 20  4  0
 20 21  1  0
 20 22  4  0
 22 23  1  0
 12 24  1  0
 11 25  1  0
  8 26  1  0
  7 27  1  0
  7 28  1  0
  4 29  1  0
  2 30  1  0
 30 31  4  0
 31 32  1  0
 31 33  4  0
 33 34  1  0
 33 35  4  0
 35 36  1  0
 35 37  4  0
  1 38  1  0
  1 39  1  0
  1 40  1  0
 22 13  4  0
 37 30  4  0
M  END
>  <sample_id>  (315)
train::C_C(=N_NC(=O)CNC(=O)_C=C_c1ccccc1)c1ccco1__gen0002

>  <partition>  (315)
BAT_EXTERNAL_CONFIRM

>  <method>  (315)
BA_seed193

>  <candidate>  (315)
primary

$$$$
train::COCCn1c(SCc2cc(=O)n3ccsc3n2)nnc1-c1ccncc1__gen0000
     RDKit          3D

 43 46  0  0  0  0  0  0  0  0999 V2000
    1.7326   -1.4010   -4.2832 C   0  0  0  0  0  0  0  0  0  0  0  0
    1.5453   -2.0886   -3.0576 O   0  0  0  0  0  0  0  0  0  1  0  0
    2.3906   -1.7222   -2.0194 C   0  0  0  0  0  0  0  0  0  2  0  0
    1.9162   -0.4544   -1.2487 C   0  0  0  0  0  0  0  0  0  3  0  0
    0.5955   -0.6245   -0.6516 N   0  0  0  0  0  0  0  0  0  4  0  0
   -0.5819   -0.2112   -1.2458 C   0  0  0  0  0  0  0  0  0  5  0  0
   -0.6474    0.3829   -2.8869 S   0  0  0  0  0  0  0  0  0 19  0  0
   -1.4394    2.0477   -2.6274 C   0  0  0  0  0  0  0  0  0 20  0  0
   -1.9389    2.2355   -1.2475 C   0  0  0  0  0  0  0  0  0 21  0  0
   -3.2736    2.1331   -0.9492 C   0  0  0  0  0  0  0  0  0 22  0  0
   -4.0047    2.0009   -1.7242 H   0  0  0  0  0  0  0  0  0 33  0  0
   -3.7401    2.1676    0.3993 C   0  0  0  0  0  0  0  0  0 23  0  0
   -4.8797    2.1390    0.7825 O   0  0  0  0  0  0  0  0  0 24  0  0
   -2.6677    2.2311    1.3249 N   0  0  0  0  0  0  0  0  0 25  0  0
   -1.3775    2.3293    0.9180 C   0  0  0  0  0  0  0  0  0 26  0  0
   -0.9797    2.3696   -0.3057 N   0  0  0  0  0  0  0  0  0 27  0  0
   -0.2898    2.3363    2.2867 S   0  0  0  0  0  0  0  0  0 28  0  0
   -1.6644    2.2242    3.3538 C   0  0  0  0  0  0  0  0  0 29  0  0
   -1.5033    2.1831    4.3968 H   0  0  0  0  0  0  0  0  0 32  0  0
   -2.8258    2.1647    2.6805 C   0  0  0  0  0  0  0  0  0 30  0  0
   -3.8134    2.0763    3.0735 H   0  0  0  0  0  0  0  0  0 31  0  0
   -2.2290    2.1034   -3.3727 H   0  0  0  0  0  0  0  0  0 34  0  0
   -0.6662    2.7737   -2.8602 H   0  0  0  0  0  0  0  0  0 35  0  0
   -1.5884   -0.3310   -0.4595 N   0  0  0  0  0  0  0  0  0  6  0  0
   -1.1054   -0.8103    0.7003 N   0  0  0  0  0  0  0  0  0  7  0  0
    0.1741   -0.9937    0.6024 C   0  0  0  0  0  0  0  0  0  8  0  0
    0.9969   -1.4691    1.7159 C   0  0  0  0  0  0  0  0  0  9  0  0
    2.0757   -2.3390    1.5359 C   0  0  0  0  0  0  0  0  0 10  0  0
    2.3552   -2.7210    0.5759 H   0  0  0  0  0  0  0  0  0 18  0  0
    2.7534   -2.7626    2.6688 C   0  0  0  0  0  0  0  0  0 11  0  0
    3.5919   -3.4412    2.5932 H   0  0  0  0  0  0  0  0  0 17  0  0
    2.4431   -2.3922    3.8849 N   0  0  0  0  0  0  0  0  0 12  0  0
    1.4025   -1.5730    4.0593 C   0  0  0  0  0  0  0  0  0 13  0  0
    1.1823   -1.3113    5.0783 H   0  0  0  0  0  0  0  0  0 16  0  0
    0.6531   -1.0821    3.0087 C   0  0  0  0  0  0  0  0  0 14  0  0
   -0.1956   -0.4565    3.1829 H   0  0  0  0  0  0  0  0  0 15  0  0
    1.8698    0.4079   -1.9006 H   0  0  0  0  0  0  0  0  0 36  0  0
    2.6137   -0.2443   -0.4288 H   0  0  0  0  0  0  0  0  0 37  0  0
    2.3714   -2.6056   -1.3813 H   0  0  0  0  0  0  0  0  0 38  0  0
    3.4195   -1.5333   -2.3475 H   0  0  0  0  0  0  0  0  0 39  0  0
    1.3846   -0.3715   -4.2334 H   0  0  0  0  0  0  0  0  0 40  0  0
    1.1501   -1.9469   -5.0182 H   0  0  0  0  0  0  0  0  0 41  0  0
    2.7944   -1.4198   -4.5732 H   0  0  0  0  0  0  0  0  0 42  0  0
  1  2  1  0
  2  3  1  0
  3  4  1  0
  4  5  1  0
  5  6  4  0
  6  7  1  0
  7  8  1  0
  8  9  1  0
  9 10  4  0
 10 11  1  0
 10 12  4  0
 12 13  2  0
 12 14  4  0
 14 15  4  0
 15 16  4  0
 15 17  4  0
 17 18  4  0
 18 19  1  0
 18 20  4  0
 20 21  1  0
  8 22  1  0
  8 23  1  0
  6 24  4  0
 24 25  4  0
 25 26  4  0
 26 27  1  0
 27 28  4  0
 28 29  1  0
 28 30  4  0
 30 31  1  0
 30 32  4  0
 32 33  4  0
 33 34  1  0
 33 35  4  0
 35 36  1  0
  4 37  1  0
  4 38  1  0
  3 39  1  0
  3 40  1  0
  1 41  1  0
  1 42  1  0
  1 43  1  0
 26  5  4  0
 35 27  4  0
 16  9  4  0
 20 14  4  0
M  END
>  <sample_id>  (316)
train::COCCn1c(SCc2cc(=O)n3ccsc3n2)nnc1-c1ccncc1__gen0000

>  <partition>  (316)
BAT_EXTERNAL_CONFIRM

>  <method>  (316)
BA_seed193

>  <candidate>  (316)
primary

$$$$
train::COCCn1c(SCc2cc(=O)n3ccsc3n2)nnc1-c1ccncc1__gen0001
     RDKit          3D

 43 46  0  0  0  0  0  0  0  0999 V2000
    3.7904   -1.9558   -2.3334 C   0  0  0  0  0  0  0  0  0  0  0  0
    2.9153   -1.1257   -1.6287 O   0  0  0  0  0  0  0  0  0  1  0  0
    2.1639   -0.2584   -2.4438 C   0  0  0  0  0  0  0  0  0  2  0  0
    1.1938    0.4860   -1.5373 C   0  0  0  0  0  0  0  0  0  3  0  0
    0.3052   -0.4597   -0.8983 N   0  0  0  0  0  0  0  0  0  4  0  0
   -0.5961   -1.2423   -1.5731 C   0  0  0  0  0  0  0  0  0  5  0  0
   -1.1487   -0.9061   -3.1908 S   0  0  0  0  0  0  0  0  0 19  0  0
   -2.8687   -0.4000   -2.7258 C   0  0  0  0  0  0  0  0  0 20  0  0
   -2.7936    0.3257   -1.4466 C   0  0  0  0  0  0  0  0  0 21  0  0
   -2.1324    1.5298   -1.3337 C   0  0  0  0  0  0  0  0  0 22  0  0
   -1.7673    2.0487   -2.2029 H   0  0  0  0  0  0  0  0  0 33  0  0
   -1.8237    2.0992   -0.0544 C   0  0  0  0  0  0  0  0  0 23  0  0
   -1.2081    3.1209    0.1764 O   0  0  0  0  0  0  0  0  0 24  0  0
   -2.2940    1.2833    1.0005 N   0  0  0  0  0  0  0  0  0 25  0  0
   -3.0184    0.1496    0.7893 C   0  0  0  0  0  0  0  0  0 26  0  0
   -3.2894   -0.3222   -0.3705 N   0  0  0  0  0  0  0  0  0 27  0  0
   -3.4108   -0.6098    2.2660 S   0  0  0  0  0  0  0  0  0 28  0  0
   -2.5482    0.6192    3.1457 C   0  0  0  0  0  0  0  0  0 29  0  0
   -2.4889    0.5839    4.2143 H   0  0  0  0  0  0  0  0  0 32  0  0
   -2.0457    1.5522    2.3315 C   0  0  0  0  0  0  0  0  0 30  0  0
   -1.4695    2.4053    2.5838 H   0  0  0  0  0  0  0  0  0 31  0  0
   -3.2307    0.2125   -3.5556 H   0  0  0  0  0  0  0  0  0 34  0  0
   -3.4665   -1.3145   -2.6188 H   0  0  0  0  0  0  0  0  0 35  0  0
   -1.1364   -2.1143   -0.7512 N   0  0  0  0  0  0  0  0  0  6  0  0
   -0.6146   -1.9155    0.4506 N   0  0  0  0  0  0  0  0  0  7  0  0
    0.2464   -0.9117    0.3821 C   0  0  0  0  0  0  0  0  0  8  0  0
    0.8644   -0.3295    1.5689 C   0  0  0  0  0  0  0  0  0  9  0  0
    1.1411    1.0277    1.7050 C   0  0  0  0  0  0  0  0  0 10  0  0
    0.9233    1.7293    0.9288 H   0  0  0  0  0  0  0  0  0 18  0  0
    1.6508    1.4660    2.9135 C   0  0  0  0  0  0  0  0  0 11  0  0
    1.8879    2.5099    3.0692 H   0  0  0  0  0  0  0  0  0 17  0  0
    1.8950    0.6698    3.9409 N   0  0  0  0  0  0  0  0  0 12  0  0
    1.6217   -0.6302    3.8127 C   0  0  0  0  0  0  0  0  0 13  0  0
    1.8297   -1.2369    4.6801 H   0  0  0  0  0  0  0  0  0 16  0  0
    1.1066   -1.1780    2.6492 C   0  0  0  0  0  0  0  0  0 14  0  0
    0.8666   -2.2255    2.5823 H   0  0  0  0  0  0  0  0  0 15  0  0
    0.6187    1.2331   -2.0842 H   0  0  0  0  0  0  0  0  0 36  0  0
    1.8003    0.9901   -0.7688 H   0  0  0  0  0  0  0  0  0 37  0  0
    1.6290   -0.8333   -3.2099 H   0  0  0  0  0  0  0  0  0 38  0  0
    2.8241    0.4654   -2.9477 H   0  0  0  0  0  0  0  0  0 39  0  0
    4.5318   -1.3628   -2.8892 H   0  0  0  0  0  0  0  0  0 40  0  0
    3.2531   -2.6017   -3.0373 H   0  0  0  0  0  0  0  0  0 41  0  0
    4.2922   -2.5738   -1.5889 H   0  0  0  0  0  0  0  0  0 42  0  0
  1  2  1  0
  2  3  1  0
  3  4  1  0
  4  5  1  0
  5  6  4  0
  6  7  1  0
  7  8  1  0
  8  9  1  0
  9 10  4  0
 10 11  1  0
 10 12  4  0
 12 13  2  0
 12 14  4  0
 14 15  4  0
 15 16  4  0
 15 17  4  0
 17 18  4  0
 18 19  1  0
 18 20  4  0
 20 21  1  0
  8 22  1  0
  8 23  1  0
  6 24  4  0
 24 25  4  0
 25 26  4  0
 26 27  1  0
 27 28  4  0
 28 29  1  0
 28 30  4  0
 30 31  1  0
 30 32  4  0
 32 33  4  0
 33 34  1  0
 33 35  4  0
 35 36  1  0
  4 37  1  0
  4 38  1  0
  3 39  1  0
  3 40  1  0
  1 41  1  0
  1 42  1  0
  1 43  1  0
 26  5  4  0
 35 27  4  0
 16  9  4  0
 20 14  4  0
M  END
>  <sample_id>  (317)
train::COCCn1c(SCc2cc(=O)n3ccsc3n2)nnc1-c1ccncc1__gen0001

>  <partition>  (317)
BAT_EXTERNAL_CONFIRM

>  <method>  (317)
BA_seed193

>  <candidate>  (317)
primary

$$$$
train::COCCn1c(SCc2cc(=O)n3ccsc3n2)nnc1-c1ccncc1__gen0002
     RDKit          3D

 43 46  0  0  0  0  0  0  0  0999 V2000
    2.6058   -2.3381    0.4050 C   0  0  0  0  0  0  0  0  0  0  0  0
    1.2048   -2.3246    0.4739 O   0  0  0  0  0  0  0  0  0  1  0  0
    0.5386   -2.9165   -0.5962 C   0  0  0  0  0  0  0  0  0  2  0  0
    0.3415   -1.9872   -1.8017 C   0  0  0  0  0  0  0  0  0  3  0  0
    0.0372   -0.6141   -1.4796 N   0  0  0  0  0  0  0  0  0  4  0  0
    0.8508    0.4401   -1.7939 C   0  0  0  0  0  0  0  0  0  5  0  0
    2.5139    0.2675   -2.3029 S   0  0  0  0  0  0  0  0  0 19  0  0
    3.2762    1.6347   -1.2750 C   0  0  0  0  0  0  0  0  0 20  0  0
    2.3711    2.0433   -0.1824 C   0  0  0  0  0  0  0  0  0 21  0  0
    1.9247    3.3270   -0.0357 C   0  0  0  0  0  0  0  0  0 22  0  0
    2.2716    4.1060   -0.6791 H   0  0  0  0  0  0  0  0  0 33  0  0
    0.9136    3.6636    0.9163 C   0  0  0  0  0  0  0  0  0 23  0  0
    0.4550    4.7558    1.1654 O   0  0  0  0  0  0  0  0  0 24  0  0
    0.4538    2.5134    1.6338 N   0  0  0  0  0  0  0  0  0 25  0  0
    1.0306    1.3061    1.4620 C   0  0  0  0  0  0  0  0  0 26  0  0
    1.9675    1.0248    0.6410 N   0  0  0  0  0  0  0  0  0 27  0  0
    0.2625    0.1088    2.4928 S   0  0  0  0  0  0  0  0  0 28  0  0
   -0.8558    1.3264    3.0323 C   0  0  0  0  0  0  0  0  0 29  0  0
   -1.6172    1.0698    3.7381 H   0  0  0  0  0  0  0  0  0 32  0  0
   -0.6136    2.5341    2.4933 C   0  0  0  0  0  0  0  0  0 30  0  0
   -1.1341    3.4554    2.6355 H   0  0  0  0  0  0  0  0  0 31  0  0
    3.4907    2.4612   -1.9433 H   0  0  0  0  0  0  0  0  0 34  0  0
    4.2019    1.2068   -0.9040 H   0  0  0  0  0  0  0  0  0 35  0  0
    0.2382    1.5738   -1.6019 N   0  0  0  0  0  0  0  0  0  6  0  0
   -0.9594    1.3054   -1.1182 N   0  0  0  0  0  0  0  0  0  7  0  0
   -1.1050    0.0092   -1.0314 C   0  0  0  0  0  0  0  0  0  8  0  0
   -2.3152   -0.6134   -0.5051 C   0  0  0  0  0  0  0  0  0  9  0  0
   -3.5588   -0.1985   -0.9697 C   0  0  0  0  0  0  0  0  0 10  0  0
   -3.6171    0.5639   -1.7220 H   0  0  0  0  0  0  0  0  0 18  0  0
   -4.6856   -0.7758   -0.4098 C   0  0  0  0  0  0  0  0  0 11  0  0
   -5.6758   -0.4834   -0.7425 H   0  0  0  0  0  0  0  0  0 17  0  0
   -4.6447   -1.6838    0.5407 N   0  0  0  0  0  0  0  0  0 12  0  0
   -3.4618   -2.0655    0.9934 C   0  0  0  0  0  0  0  0  0 13  0  0
   -3.4768   -2.8024    1.7843 H   0  0  0  0  0  0  0  0  0 16  0  0
   -2.2590   -1.5643    0.5156 C   0  0  0  0  0  0  0  0  0 14  0  0
   -1.3284   -1.8672    0.9549 H   0  0  0  0  0  0  0  0  0 15  0  0
   -0.4735   -2.3842   -2.4166 H   0  0  0  0  0  0  0  0  0 36  0  0
    1.2435   -1.9632   -2.4127 H   0  0  0  0  0  0  0  0  0 37  0  0
    1.0530   -3.8131   -0.9691 H   0  0  0  0  0  0  0  0  0 38  0  0
   -0.4201   -3.2601   -0.1889 H   0  0  0  0  0  0  0  0  0 39  0  0
    2.9698   -3.3712    0.2880 H   0  0  0  0  0  0  0  0  0 40  0  0
    2.9712   -1.9228    1.3430 H   0  0  0  0  0  0  0  0  0 41  0  0
    3.0144   -1.7477   -0.4278 H   0  0  0  0  0  0  0  0  0 42  0  0
  1  2  1  0
  2  3  1  0
  3  4  1  0
  4  5  1  0
  5  6  4  0
  6  7  1  0
  7  8  1  0
  8  9  1  0
  9 10  4  0
 10 11  1  0
 10 12  4  0
 12 13  2  0
 12 14  4  0
 14 15  4  0
 15 16  4  0
 15 17  4  0
 17 18  4  0
 18 19  1  0
 18 20  4  0
 20 21  1  0
  8 22  1  0
  8 23  1  0
  6 24  4  0
 24 25  4  0
 25 26  4  0
 26 27  1  0
 27 28  4  0
 28 29  1  0
 28 30  4  0
 30 31  1  0
 30 32  4  0
 32 33  4  0
 33 34  1  0
 33 35  4  0
 35 36  1  0
  4 37  1  0
  4 38  1  0
  3 39  1  0
  3 40  1  0
  1 41  1  0
  1 42  1  0
  1 43  1  0
 26  5  4  0
 35 27  4  0
 16  9  4  0
 20 14  4  0
M  END
>  <sample_id>  (318)
train::COCCn1c(SCc2cc(=O)n3ccsc3n2)nnc1-c1ccncc1__gen0002

>  <partition>  (318)
BAT_EXTERNAL_CONFIRM

>  <method>  (318)
BA_seed193

>  <candidate>  (318)
primary

$$$$
train::CCN1CCN(C(=O)Nc2cccc(C(F)(F)F)c2)CC1__gen0000
     RDKit          3D

 39 40  0  0  0  0  0  0  0  0999 V2000
    1.9099   -3.7131    3.5696 C   0  0  0  0  0  0  0  0  0  0  0  0
    2.4597   -3.8936    4.4900 H   0  0  0  0  0  0  0  0  0  1  0  0
    1.2306   -4.5547    3.3861 H   0  0  0  0  0  0  0  0  0  2  0  0
    2.6241   -3.6635    2.7525 H   0  0  0  0  0  0  0  0  0  3  0  0
    1.1067   -2.4254    3.6912 C   0  0  0  0  0  0  0  0  0  4  0  0
    0.1633   -2.2745    2.5916 N   0  0  0  0  0  0  0  0  0  5  0  0
    0.7983   -1.9530    1.3237 C   0  0  0  0  0  0  0  0  0  6  0  0
    1.5507   -2.7159    1.1124 H   0  0  0  0  0  0  0  0  0  7  0  0
    1.2888   -0.9707    1.3478 H   0  0  0  0  0  0  0  0  0 36  0  0
   -0.2554   -1.9640    0.2099 C   0  0  0  0  0  0  0  0  0  8  0  0
    0.2196   -1.8114   -0.7624 H   0  0  0  0  0  0  0  0  0 34  0  0
   -0.7433   -2.9434    0.1909 H   0  0  0  0  0  0  0  0  0 35  0  0
   -1.2760   -0.9813    0.4936 N   0  0  0  0  0  0  0  0  0  9  0  0
   -1.4019    0.2897   -0.0079 C   0  0  0  0  0  0  0  0  0 10  0  0
   -2.2360    1.0544    0.4426 O   0  0  0  0  0  0  0  0  0 11  0  0
   -0.5630    0.6124   -1.0436 N   0  0  0  0  0  0  0  0  0 12  0  0
   -0.5802    1.7565   -1.8336 C   0  0  0  0  0  0  0  0  0 13  0  0
    0.4149    1.8947   -2.7959 C   0  0  0  0  0  0  0  0  0 14  0  0
    1.1514    1.1207   -2.9270 H   0  0  0  0  0  0  0  0  0 26  0  0
    0.4525    3.0047   -3.6151 C   0  0  0  0  0  0  0  0  0 15  0  0
    1.5369    3.0895   -4.6407 C   0  0  2  0  0  0  0  0  0 22  0  0
    2.7608    3.1959   -4.0849 F   0  0  0  0  0  0  0  0  0 23  0  0
    1.4238    4.1432   -5.4690 F   0  0  0  0  0  0  0  0  0 24  0  0
    1.5912    2.0064   -5.4378 F   0  0  0  0  0  0  0  0  0 25  0  0
   -0.4920    4.0128   -3.4760 C   0  0  0  0  0  0  0  0  0 16  0  0
   -0.4478    4.8888   -4.1131 H   0  0  0  0  0  0  0  0  0 21  0  0
   -1.4700    3.8953   -2.5112 C   0  0  0  0  0  0  0  0  0 17  0  0
   -2.2098    4.6611   -2.3975 H   0  0  0  0  0  0  0  0  0 20  0  0
   -1.5218    2.7801   -1.6920 C   0  0  0  0  0  0  0  0  0 18  0  0
   -2.2899    2.6859   -0.9447 H   0  0  0  0  0  0  0  0  0 19  0  0
    0.1594   -0.0522   -1.3081 H   0  0  0  0  0  0  0  0  0 27  0  0
   -1.9123   -1.2666    1.7692 C   0  0  0  0  0  0  0  0  0 28  0  0
   -2.6702   -0.5060    1.9528 H   0  0  0  0  0  0  0  0  0 32  0  0
   -2.3967   -2.2543    1.6928 H   0  0  0  0  0  0  0  0  0 33  0  0
   -0.8660   -1.2932    2.8785 C   0  0  0  0  0  0  0  0  0 29  0  0
   -1.3600   -1.5552    3.8176 H   0  0  0  0  0  0  0  0  0 30  0  0
   -0.4450   -0.2766    2.9954 H   0  0  0  0  0  0  0  0  0 31  0  0
    1.7863   -1.5624    3.7469 H   0  0  0  0  0  0  0  0  0 37  0  0
    0.5082   -2.4612    4.6053 H   0  0  0  0  0  0  0  0  0 38  0  0
  1  2  1  0
  1  3  1  0
  1  4  1  0
  1  5  1  0
  5  6  1  0
  6  7  1  0
  7  8  1  0
  7  9  1  0
  7 10  1  0
 10 11  1  0
 10 12  1  0
 10 13  1  0
 13 14  1  0
 14 15  2  0
 14 16  1  0
 16 17  1  0
 17 18  4  0
 18 19  1  0
 18 20  4  0
 20 21  1  0
 21 22  1  1
 21 23  1  0
 21 24  1  0
 20 25  4  0
 25 26  1  0
 25 27  4  0
 27 28  1  0
 27 29  4  0
 29 30  1  0
 16 31  1  0
 13 32  1  0
 32 33  1  0
 32 34  1  0
 32 35  1  0
 35 36  1  0
 35 37  1  0
  5 38  1  0
  5 39  1  0
 35  6  1  0
 29 17  4  0
M  END
>  <sample_id>  (319)
train::CCN1CCN(C(=O)Nc2cccc(C(F)(F)F)c2)CC1__gen0000

>  <partition>  (319)
BAT_EXTERNAL_CONFIRM

>  <method>  (319)
BA_seed193

>  <candidate>  (319)
primary

$$$$
train::CCN1CCN(C(=O)Nc2cccc(C(F)(F)F)c2)CC1__gen0001
     RDKit          3D

 39 40  0  0  0  0  0  0  0  0999 V2000
   -1.4936   -2.7801    4.5874 C   0  0  0  0  0  0  0  0  0  0  0  0
   -1.9302   -3.1946    5.4813 H   0  0  0  0  0  0  0  0  0  1  0  0
   -0.5665   -2.2899    4.8466 H   0  0  0  0  0  0  0  0  0  2  0  0
   -1.2819   -3.5867    3.8991 H   0  0  0  0  0  0  0  0  0  3  0  0
   -2.4727   -1.7864    3.9619 C   0  0  0  0  0  0  0  0  0  4  0  0
   -2.0886   -1.1764    2.6999 N   0  0  0  0  0  0  0  0  0  5  0  0
   -0.9355   -0.3165    2.7989 C   0  0  0  0  0  0  0  0  0  6  0  0
   -1.1965    0.5501    3.4420 H   0  0  0  0  0  0  0  0  0  7  0  0
   -0.0585   -0.8022    3.2809 H   0  0  0  0  0  0  0  0  0 36  0  0
   -0.5038    0.2275    1.4485 C   0  0  0  0  0  0  0  0  0  8  0  0
    0.3810    0.8627    1.5889 H   0  0  0  0  0  0  0  0  0 34  0  0
   -1.3052    0.8259    1.0239 H   0  0  0  0  0  0  0  0  0 35  0  0
   -0.1764   -0.8767    0.5528 N   0  0  0  0  0  0  0  0  0  9  0  0
    0.3225   -0.7357   -0.7088 C   0  0  0  0  0  0  0  0  0 10  0  0
    0.5070   -1.7104   -1.4345 O   0  0  0  0  0  0  0  0  0 11  0  0
    0.5685    0.5621   -1.1117 N   0  0  0  0  0  0  0  0  0 12  0  0
    1.1253    1.0066   -2.2986 C   0  0  0  0  0  0  0  0  0 13  0  0
    1.3597    2.3692   -2.4245 C   0  0  0  0  0  0  0  0  0 14  0  0
    1.1222    3.0483   -1.6137 H   0  0  0  0  0  0  0  0  0 26  0  0
    1.9141    2.8749   -3.5942 C   0  0  0  0  0  0  0  0  0 15  0  0
    2.1360    4.3454   -3.6910 C   0  0  2  0  0  0  0  0  0 22  0  0
    2.7088    4.8649   -2.5943 F   0  0  0  0  0  0  0  0  0 23  0  0
    0.9633    5.0285   -3.8193 F   0  0  0  0  0  0  0  0  0 24  0  0
    2.8890    4.7196   -4.7248 F   0  0  0  0  0  0  0  0  0 25  0  0
    2.2287    2.0262   -4.6502 C   0  0  0  0  0  0  0  0  0 16  0  0
    2.6567    2.4299   -5.5513 H   0  0  0  0  0  0  0  0  0 21  0  0
    1.9995    0.6707   -4.5142 C   0  0  0  0  0  0  0  0  0 17  0  0
    2.2423    0.0082   -5.3210 H   0  0  0  0  0  0  0  0  0 20  0  0
    1.4488    0.1574   -3.3430 C   0  0  0  0  0  0  0  0  0 18  0  0
    1.2733   -0.8996   -3.2546 H   0  0  0  0  0  0  0  0  0 19  0  0
    0.3732    1.2944   -0.4332 H   0  0  0  0  0  0  0  0  0 27  0  0
   -0.5857   -2.1888    0.9848 C   0  0  0  0  0  0  0  0  0 28  0  0
    0.0876   -2.5850    1.7479 H   0  0  0  0  0  0  0  0  0 32  0  0
   -0.5790   -2.8495    0.1242 H   0  0  0  0  0  0  0  0  0 33  0  0
   -1.9979   -2.0850    1.5657 C   0  0  0  0  0  0  0  0  0 29  0  0
   -2.3858   -3.0674    1.8342 H   0  0  0  0  0  0  0  0  0 30  0  0
   -2.6691   -1.6840    0.7785 H   0  0  0  0  0  0  0  0  0 31  0  0
   -2.6564   -0.9644    4.6514 H   0  0  0  0  0  0  0  0  0 37  0  0
   -3.4243   -2.2929    3.7841 H   0  0  0  0  0  0  0  0  0 38  0  0
  1  2  1  0
  1  3  1  0
  1  4  1  0
  1  5  1  0
  5  6  1  0
  6  7  1  0
  7  8  1  0
  7  9  1  0
  7 10  1  0
 10 11  1  0
 10 12  1  0
 10 13  1  0
 13 14  1  0
 14 15  2  0
 14 16  1  0
 16 17  1  0
 17 18  4  0
 18 19  1  0
 18 20  4  0
 20 21  1  0
 21 22  1  1
 21 23  1  0
 21 24  1  0
 20 25  4  0
 25 26  1  0
 25 27  4  0
 27 28  1  0
 27 29  4  0
 29 30  1  0
 16 31  1  0
 13 32  1  0
 32 33  1  0
 32 34  1  0
 32 35  1  0
 35 36  1  0
 35 37  1  0
  5 38  1  0
  5 39  1  0
 35  6  1  0
 29 17  4  0
M  END
>  <sample_id>  (320)
train::CCN1CCN(C(=O)Nc2cccc(C(F)(F)F)c2)CC1__gen0001

>  <partition>  (320)
BAT_EXTERNAL_CONFIRM

>  <method>  (320)
BA_seed193

>  <candidate>  (320)
primary

$$$$
train::CCN1CCN(C(=O)Nc2cccc(C(F)(F)F)c2)CC1__gen0002
     RDKit          3D

 39 40  0  0  0  0  0  0  0  0999 V2000
   -3.9726   -0.9178    2.8090 C   0  0  0  0  0  0  0  0  0  0  0  0
   -4.1004   -0.1968    2.0151 H   0  0  0  0  0  0  0  0  0  1  0  0
   -4.9348   -1.0440    3.3052 H   0  0  0  0  0  0  0  0  0  2  0  0
   -3.2741   -0.5214    3.5419 H   0  0  0  0  0  0  0  0  0  3  0  0
   -3.4964   -2.2726    2.2735 C   0  0  0  0  0  0  0  0  0  4  0  0
   -2.2172   -2.2839    1.6118 N   0  0  0  0  0  0  0  0  0  5  0  0
   -1.0792   -1.9780    2.4550 C   0  0  0  0  0  0  0  0  0  6  0  0
   -1.0204   -0.9169    2.7291 H   0  0  0  0  0  0  0  0  0  7  0  0
   -1.1556   -2.5742    3.3679 H   0  0  0  0  0  0  0  0  0 36  0  0
    0.1962   -2.3588    1.6994 C   0  0  0  0  0  0  0  0  0  8  0  0
    1.0812   -2.1223    2.2936 H   0  0  0  0  0  0  0  0  0 34  0  0
    0.1741   -3.4279    1.4651 H   0  0  0  0  0  0  0  0  0 35  0  0
    0.2880   -1.6382    0.4372 N   0  0  0  0  0  0  0  0  0  9  0  0
    1.0797   -0.5179    0.4149 C   0  0  0  0  0  0  0  0  0 10  0  0
    1.7427   -0.1840    1.3783 O   0  0  0  0  0  0  0  0  0 11  0  0
    1.1496    0.1151   -0.8085 N   0  0  0  0  0  0  0  0  0 12  0  0
    1.8382    1.2672   -1.1439 C   0  0  0  0  0  0  0  0  0 13  0  0
    1.8876    1.6378   -2.4851 C   0  0  0  0  0  0  0  0  0 14  0  0
    1.3965    1.0328   -3.2348 H   0  0  0  0  0  0  0  0  0 26  0  0
    2.5500    2.7860   -2.8680 C   0  0  0  0  0  0  0  0  0 15  0  0
    2.5541    3.1441   -4.3309 C   0  0  2  0  0  0  0  0  0 22  0  0
    3.1597    4.3082   -4.6061 F   0  0  0  0  0  0  0  0  0 23  0  0
    1.3038    3.2438   -4.8251 F   0  0  0  0  0  0  0  0  0 24  0  0
    3.1671    2.2108   -5.0739 F   0  0  0  0  0  0  0  0  0 25  0  0
    3.1846    3.5934   -1.9359 C   0  0  0  0  0  0  0  0  0 16  0  0
    3.6968    4.4922   -2.2448 H   0  0  0  0  0  0  0  0  0 21  0  0
    3.1405    3.2255   -0.6031 C   0  0  0  0  0  0  0  0  0 17  0  0
    3.6400    3.8343    0.1341 H   0  0  0  0  0  0  0  0  0 20  0  0
    2.4819    2.0730   -0.1983 C   0  0  0  0  0  0  0  0  0 18  0  0
    2.4576    1.7981    0.8427 H   0  0  0  0  0  0  0  0  0 19  0  0
    0.7364   -0.3695   -1.6001 H   0  0  0  0  0  0  0  0  0 27  0  0
   -0.8878   -1.8801   -0.3781 C   0  0  0  0  0  0  0  0  0 28  0  0
   -0.8506   -1.3257   -1.3148 H   0  0  0  0  0  0  0  0  0 32  0  0
   -0.9259   -2.9525   -0.5950 H   0  0  0  0  0  0  0  0  0 33  0  0
   -2.1530   -1.4927    0.3954 C   0  0  0  0  0  0  0  0  0 29  0  0
   -3.0357   -1.7226   -0.2153 H   0  0  0  0  0  0  0  0  0 30  0  0
   -2.1330   -0.4145    0.6037 H   0  0  0  0  0  0  0  0  0 31  0  0
   -3.4279   -2.9806    3.1105 H   0  0  0  0  0  0  0  0  0 37  0  0
   -4.2419   -2.6693    1.5782 H   0  0  0  0  0  0  0  0  0 38  0  0
  1  2  1  0
  1  3  1  0
  1  4  1  0
  1  5  1  0
  5  6  1  0
  6  7  1  0
  7  8  1  0
  7  9  1  0
  7 10  1  0
 10 11  1  0
 10 12  1  0
 10 13  1  0
 13 14  1  0
 14 15  2  0
 14 16  1  0
 16 17  1  0
 17 18  4  0
 18 19  1  0
 18 20  4  0
 20 21  1  0
 21 22  1  1
 21 23  1  0
 21 24  1  0
 20 25  4  0
 25 26  1  0
 25 27  4  0
 27 28  1  0
 27 29  4  0
 29 30  1  0
 16 31  1  0
 13 32  1  0
 32 33  1  0
 32 34  1  0
 32 35  1  0
 35 36  1  0
 35 37  1  0
  5 38  1  0
  5 39  1  0
 35  6  1  0
 29 17  4  0
M  END
>  <sample_id>  (321)
train::CCN1CCN(C(=O)Nc2cccc(C(F)(F)F)c2)CC1__gen0002

>  <partition>  (321)
BAT_EXTERNAL_CONFIRM

>  <method>  (321)
BA_seed193

>  <candidate>  (321)
primary

$$$$
train::CCN(C(=O)C1CCCN1S(=O)(=O)c1cccc2nsnc12)c1ccccc1__gen0000
     RDKit          3D

 48 51  0  0  0  0  0  0  0  0999 V2000
   -2.6063    1.7223    2.0419 C   0  0  0  0  0  0  0  0  0  0  0  0
   -2.2234    2.7052    2.2889 H   0  0  0  0  0  0  0  0  0  1  0  0
   -1.4704    0.6913    2.0229 C   0  0  0  0  0  0  0  0  0  2  0  0
   -0.4667    1.0350    1.0329 N   0  0  0  0  0  0  0  0  0  3  0  0
   -0.4552    0.3680   -0.1163 C   0  0  0  0  0  0  0  0  0  4  0  0
   -1.2640   -0.5012   -0.3806 O   0  0  0  0  0  0  0  0  0  5  0  0
    0.6116    0.7520   -1.1592 C   0  0  1  0  0  0  0  0  0  6  0  0
    1.3158    1.4824   -0.7516 H   0  0  0  0  0  0  0  0  0 32  0  0
    1.3499   -0.4145   -1.5998 N   0  0  0  0  0  0  0  0  0  7  0  0
    1.6289   -1.6754   -0.5295 S   0  0  2  0  0  6  0  0  0  8  0  0
    1.9755   -1.0502    0.7228 O   0  0  0  0  0  0  0  0  0  9  0  0
    2.6113   -2.5009   -1.1784 O   0  0  0  0  0  0  0  0  0 10  0  0
    0.1732   -2.6936   -0.2282 C   0  0  0  0  0  0  0  0  0 11  0  0
   -0.2538   -2.8316    1.0671 C   0  0  0  0  0  0  0  0  0 12  0  0
    0.2514   -2.2626    1.8340 H   0  0  0  0  0  0  0  0  0 22  0  0
   -1.3302   -3.6598    1.4023 C   0  0  0  0  0  0  0  0  0 13  0  0
   -1.6428   -3.7259    2.4228 H   0  0  0  0  0  0  0  0  0 21  0  0
   -1.9961   -4.3836    0.4400 C   0  0  0  0  0  0  0  0  0 14  0  0
   -2.8256   -5.0288    0.6707 H   0  0  0  0  0  0  0  0  0 20  0  0
   -1.5540   -4.2848   -0.8850 C   0  0  0  0  0  0  0  0  0 15  0  0
   -2.0481   -4.9141   -1.9702 N   0  0  0  0  0  0  0  0  0 16  0  0
   -1.1770   -4.4855   -3.2491 S   0  0  0  0  0  0  0  0  0 17  0  0
   -0.1452   -3.4953   -2.5267 N   0  0  0  0  0  0  0  0  0 18  0  0
   -0.4348   -3.4465   -1.2418 C   0  0  0  0  0  0  0  0  0 19  0  0
    1.1127   -0.7086   -2.9931 C   0  0  0  0  0  0  0  0  0 23  0  0
    0.2995   -1.4349   -3.1224 H   0  0  0  0  0  0  0  0  0 24  0  0
    2.0266   -1.1244   -3.4175 H   0  0  0  0  0  0  0  0  0 25  0  0
    0.7234    0.6635   -3.5563 C   0  0  0  0  0  0  0  0  0 26  0  0
    1.6176    1.2818   -3.7392 H   0  0  0  0  0  0  0  0  0 27  0  0
    0.1748    0.5734   -4.4963 H   0  0  0  0  0  0  0  0  0 28  0  0
   -0.0958    1.2694   -2.4333 C   0  0  0  0  0  0  0  0  0 29  0  0
   -1.1134    0.8628   -2.4672 H   0  0  0  0  0  0  0  0  0 30  0  0
   -0.1419    2.3549   -2.4537 H   0  0  0  0  0  0  0  0  0 31  0  0
    0.4622    2.0650    1.3929 C   0  0  0  0  0  0  0  0  0 33  0  0
    1.7216    1.7200    1.8570 C   0  0  0  0  0  0  0  0  0 34  0  0
    2.0124    0.6789    1.9085 H   0  0  0  0  0  0  0  0  0 43  0  0
    2.6402    2.7043    2.1954 C   0  0  0  0  0  0  0  0  0 35  0  0
    3.6001    2.4260    2.5533 H   0  0  0  0  0  0  0  0  0 42  0  0
    2.2699    4.0328    2.1236 C   0  0  0  0  0  0  0  0  0 36  0  0
    2.9802    4.8019    2.4021 H   0  0  0  0  0  0  0  0  0 41  0  0
    1.0138    4.3830    1.6710 C   0  0  0  0  0  0  0  0  0 37  0  0
    0.7237    5.4357    1.6039 H   0  0  0  0  0  0  0  0  0 40  0  0
    0.1056    3.4063    1.3070 C   0  0  0  0  0  0  0  0  0 38  0  0
   -0.8704    3.6769    0.9352 H   0  0  0  0  0  0  0  0  0 39  0  0
   -1.8671   -0.2874    1.7494 H   0  0  0  0  0  0  0  0  0 44  0  0
   -1.0095    0.6311    3.0007 H   0  0  0  0  0  0  0  0  0 45  0  0
   -3.0734    1.7545    1.0717 H   0  0  0  0  0  0  0  0  0 46  0  0
   -3.3371    1.4313    2.7775 H   0  0  0  0  0  0  0  0  0 47  0  0
  1  2  1  0
  1  3  1  0
  3  4  1  0
  4  5  1  0
  5  6  2  0
  5  7  1  0
  7  8  1  1
  7  9  1  0
  9 10  1  0
 10 11  2  0
 10 12  2  0
 10 13  1  6
 13 14  4  0
 14 15  1  0
 14 16  4  0
 16 17  1  0
 16 18  4  0
 18 19  1  0
 18 20  4  0
 20 21  4  0
 21 22  4  0
 22 23  4  0
 23 24  4  0
  9 25  1  0
 25 26  1  0
 25 27  1  0
 25 28  1  0
 28 29  1  0
 28 30  1  0
 28 31  1  0
 31 32  1  0
 31 33  1  0
  4 34  1  0
 34 35  4  0
 35 36  1  0
 35 37  4  0
 37 38  1  0
 37 39  4  0
 39 40  1  0
 39 41  4  0
 41 42  1  0
 41 43  4  0
 43 44  1  0
  3 45  1  0
  3 46  1  0
  1 47  1  0
  1 48  1  0
 31  7  1  0
 43 34  4  0
 24 13  4  0
 24 20  4  0
M  END
>  <sample_id>  (322)
train::CCN(C(=O)C1CCCN1S(=O)(=O)c1cccc2nsnc12)c1ccccc1__gen0000

>  <partition>  (322)
BAT_EXTERNAL_CONFIRM

>  <method>  (322)
BA_seed193

>  <candidate>  (322)
primary

$$$$
train::CCN(C(=O)C1CCCN1S(=O)(=O)c1cccc2nsnc12)c1ccccc1__gen0001
     RDKit          3D

 48 51  0  0  0  0  0  0  0  0999 V2000
   -0.4921    4.8351   -0.8378 C   0  0  0  0  0  0  0  0  0  0  0  0
   -1.5064    4.5689   -0.5753 H   0  0  0  0  0  0  0  0  0  1  0  0
    0.5064    3.9279   -0.1163 C   0  0  0  0  0  0  0  0  0  2  0  0
    0.2945    2.5027   -0.4710 N   0  0  0  0  0  0  0  0  0  3  0  0
    1.1676    1.9157   -1.2717 C   0  0  0  0  0  0  0  0  0  4  0  0
    2.1605    2.5017   -1.6595 O   0  0  0  0  0  0  0  0  0  5  0  0
    0.8637    0.4765   -1.6968 C   0  0  2  0  0  0  0  0  0  6  0  0
   -0.1206    0.4223   -2.1875 H   0  0  0  0  0  0  0  0  0 32  0  0
    0.8228   -0.4120   -0.5304 N   0  0  0  0  0  0  0  0  0  7  0  0
   -0.4067   -1.5572   -0.6931 S   0  0  1  0  0  6  0  0  0  8  0  0
   -1.6522   -0.8919   -0.4041 O   0  0  0  0  0  0  0  0  0  9  0  0
   -0.3295   -2.2477   -1.9516 O   0  0  0  0  0  0  0  0  0 10  0  0
   -0.0773   -2.7292    0.6236 C   0  0  0  0  0  0  0  0  0 11  0  0
    0.0826   -4.0616    0.3179 C   0  0  0  0  0  0  0  0  0 12  0  0
    0.0193   -4.3466   -0.7170 H   0  0  0  0  0  0  0  0  0 22  0  0
    0.3130   -5.0168    1.3121 C   0  0  0  0  0  0  0  0  0 13  0  0
    0.4370   -6.0491    1.0203 H   0  0  0  0  0  0  0  0  0 21  0  0
    0.3850   -4.6762    2.6446 C   0  0  0  0  0  0  0  0  0 14  0  0
    0.5531   -5.4000    3.4172 H   0  0  0  0  0  0  0  0  0 20  0  0
    0.2025   -3.3269    2.9857 C   0  0  0  0  0  0  0  0  0 15  0  0
    0.2098   -2.7842    4.2065 N   0  0  0  0  0  0  0  0  0 16  0  0
   -0.0332   -1.2036    4.0477 S   0  0  0  0  0  0  0  0  0 17  0  0
   -0.1254   -1.1115    2.4733 N   0  0  0  0  0  0  0  0  0 18  0  0
   -0.0270   -2.3356    1.9638 C   0  0  0  0  0  0  0  0  0 19  0  0
    2.1483   -1.0084   -0.4716 C   0  0  0  0  0  0  0  0  0 23  0  0
    2.8169   -0.2888   -0.0097 H   0  0  0  0  0  0  0  0  0 24  0  0
    2.1426   -1.9178    0.1284 H   0  0  0  0  0  0  0  0  0 25  0  0
    2.5179   -1.2745   -1.9467 C   0  0  0  0  0  0  0  0  0 26  0  0
    2.0061   -2.1585   -2.3140 H   0  0  0  0  0  0  0  0  0 27  0  0
    3.5940   -1.4071   -2.0739 H   0  0  0  0  0  0  0  0  0 28  0  0
    1.9714   -0.0452   -2.6321 C   0  0  0  0  0  0  0  0  0 29  0  0
    1.5827   -0.2477   -3.6338 H   0  0  0  0  0  0  0  0  0 30  0  0
    2.7419    0.7235   -2.7165 H   0  0  0  0  0  0  0  0  0 31  0  0
   -0.9509    1.9816   -0.0254 C   0  0  0  0  0  0  0  0  0 33  0  0
   -1.0487    1.4784    1.2616 C   0  0  0  0  0  0  0  0  0 34  0  0
   -0.1896    1.4621    1.9184 H   0  0  0  0  0  0  0  0  0 43  0  0
   -2.2676    0.9968    1.7237 C   0  0  0  0  0  0  0  0  0 35  0  0
   -2.3165    0.5589    2.7137 H   0  0  0  0  0  0  0  0  0 42  0  0
   -3.3820    1.0315    0.9096 C   0  0  0  0  0  0  0  0  0 36  0  0
   -4.3202    0.6313    1.2504 H   0  0  0  0  0  0  0  0  0 41  0  0
   -3.2971    1.5597   -0.3703 C   0  0  0  0  0  0  0  0  0 37  0  0
   -4.1598    1.5927   -1.0094 H   0  0  0  0  0  0  0  0  0 40  0  0
   -2.0853    2.0390   -0.8361 C   0  0  0  0  0  0  0  0  0 38  0  0
   -2.0026    2.4637   -1.8257 H   0  0  0  0  0  0  0  0  0 39  0  0
    1.5264    4.1670   -0.4137 H   0  0  0  0  0  0  0  0  0 44  0  0
    0.3858    4.0616    0.9540 H   0  0  0  0  0  0  0  0  0 45  0  0
   -0.3666    4.7365   -1.9162 H   0  0  0  0  0  0  0  0  0 46  0  0
   -0.2945    5.8631   -0.5651 H   0  0  0  0  0  0  0  0  0 47  0  0
  1  2  1  0
  1  3  1  0
  3  4  1  0
  4  5  1  0
  5  6  2  0
  5  7  1  0
  7  8  1  1
  7  9  1  0
  9 10  1  0
 10 11  2  0
 10 12  2  0
 10 13  1  1
 13 14  4  0
 14 15  1  0
 14 16  4  0
 16 17  1  0
 16 18  4  0
 18 19  1  0
 18 20  4  0
 20 21  4  0
 21 22  4  0
 22 23  4  0
 23 24  4  0
  9 25  1  0
 25 26  1  0
 25 27  1  0
 25 28  1  0
 28 29  1  0
 28 30  1  0
 28 31  1  0
 31 32  1  0
 31 33  1  0
  4 34  1  0
 34 35  4  0
 35 36  1  0
 35 37  4  0
 37 38  1  0
 37 39  4  0
 39 40  1  0
 39 41  4  0
 41 42  1  0
 41 43  4  0
 43 44  1  0
  3 45  1  0
  3 46  1  0
  1 47  1  0
  1 48  1  0
 31  7  1  0
 43 34  4  0
 24 13  4  0
 24 20  4  0
M  END
>  <sample_id>  (323)
train::CCN(C(=O)C1CCCN1S(=O)(=O)c1cccc2nsnc12)c1ccccc1__gen0001

>  <partition>  (323)
BAT_EXTERNAL_CONFIRM

>  <method>  (323)
BA_seed193

>  <candidate>  (323)
primary

$$$$
train::CCN(C(=O)C1CCCN1S(=O)(=O)c1cccc2nsnc12)c1ccccc1__gen0002
     RDKit          3D

 48 51  0  0  0  0  0  0  0  0999 V2000
   -3.2930    0.1512    0.1727 C   0  0  0  0  0  0  0  0  0  0  0  0
   -2.8472    0.7761   -0.6025 H   0  0  0  0  0  0  0  0  0  1  0  0
   -2.4888   -1.1548    0.2991 C   0  0  0  0  0  0  0  0  0  2  0  0
   -1.0961   -0.9068    0.6539 N   0  0  0  0  0  0  0  0  0  3  0  0
   -0.2158   -0.7794   -0.3523 C   0  0  0  0  0  0  0  0  0  4  0  0
   -0.5584   -0.8110   -1.5209 O   0  0  0  0  0  0  0  0  0  5  0  0
    1.2796   -0.7276    0.0163 C   0  0  2  0  0  0  0  0  0  6  0  0
    1.4747    0.0890    0.7262 H   0  0  0  0  0  0  0  0  0 32  0  0
    2.0257   -0.4827   -1.1937 N   0  0  0  0  0  0  0  0  0  7  0  0
    2.4893    1.0583   -1.5411 S   0  0  1  0  0  6  0  0  0  8  0  0
    2.8036    1.7232   -0.3114 O   0  0  0  0  0  0  0  0  0  9  0  0
    3.4973    1.0195   -2.5704 O   0  0  0  0  0  0  0  0  0 10  0  0
    0.9887    1.6740   -2.2456 C   0  0  0  0  0  0  0  0  0 11  0  0
    0.6716    1.4436   -3.5544 C   0  0  0  0  0  0  0  0  0 12  0  0
    1.4410    0.9651   -4.1738 H   0  0  0  0  0  0  0  0  0 22  0  0
   -0.5664    1.7823   -4.1074 C   0  0  0  0  0  0  0  0  0 13  0  0
   -0.7551    1.5707   -5.1369 H   0  0  0  0  0  0  0  0  0 21  0  0
   -1.5389    2.3918   -3.3505 C   0  0  0  0  0  0  0  0  0 14  0  0
   -2.4943    2.6491   -3.7525 H   0  0  0  0  0  0  0  0  0 20  0  0
   -1.2654    2.6644   -2.0054 C   0  0  0  0  0  0  0  0  0 15  0  0
   -2.0308    3.2644   -1.0843 N   0  0  0  0  0  0  0  0  0 16  0  0
   -1.2346    3.2998    0.2915 S   0  0  0  0  0  0  0  0  0 17  0  0
    0.0810    2.5810   -0.1421 N   0  0  0  0  0  0  0  0  0 18  0  0
    0.0189    2.2857   -1.4389 C   0  0  0  0  0  0  0  0  0 19  0  0
    2.7662   -1.6487   -1.5903 C   0  0  0  0  0  0  0  0  0 23  0  0
    3.6703   -1.3350   -2.1330 H   0  0  0  0  0  0  0  0  0 24  0  0
    2.1522   -2.2613   -2.2556 H   0  0  0  0  0  0  0  0  0 25  0  0
    3.0475   -2.3627   -0.2771 C   0  0  0  0  0  0  0  0  0 26  0  0
    3.8997   -1.8851    0.2376 H   0  0  0  0  0  0  0  0  0 27  0  0
    3.2657   -3.4093   -0.4020 H   0  0  0  0  0  0  0  0  0 28  0  0
    1.7655   -2.0927    0.5360 C   0  0  0  0  0  0  0  0  0 29  0  0
    1.0204   -2.8527    0.2988 H   0  0  0  0  0  0  0  0  0 30  0  0
    1.9412   -2.0912    1.6033 H   0  0  0  0  0  0  0  0  0 31  0  0
   -0.8374   -0.6306    2.0229 C   0  0  0  0  0  0  0  0  0 33  0  0
   -0.9866    0.6583    2.5101 C   0  0  0  0  0  0  0  0  0 34  0  0
   -1.2433    1.4663    1.8534 H   0  0  0  0  0  0  0  0  0 43  0  0
   -0.7894    0.9108    3.8559 C   0  0  0  0  0  0  0  0  0 35  0  0
   -0.9071    1.9123    4.2406 H   0  0  0  0  0  0  0  0  0 42  0  0
   -0.4597   -0.1335    4.7187 C   0  0  0  0  0  0  0  0  0 36  0  0
   -0.3129    0.0727    5.7700 H   0  0  0  0  0  0  0  0  0 41  0  0
   -0.3352   -1.4228    4.2397 C   0  0  0  0  0  0  0  0  0 37  0  0
   -0.0802   -2.2336    4.8973 H   0  0  0  0  0  0  0  0  0 40  0  0
   -0.5204   -1.6699    2.8877 C   0  0  0  0  0  0  0  0  0 38  0  0
   -0.4330   -2.6796    2.5079 H   0  0  0  0  0  0  0  0  0 39  0  0
   -2.4882   -1.6816   -0.6554 H   0  0  0  0  0  0  0  0  0 44  0  0
   -2.9266   -1.7835    1.0771 H   0  0  0  0  0  0  0  0  0 45  0  0
   -3.2860    0.7021    1.0976 H   0  0  0  0  0  0  0  0  0 46  0  0
   -4.3091   -0.0756   -0.1167 H   0  0  0  0  0  0  0  0  0 47  0  0
  1  2  1  0
  1  3  1  0
  3  4  1  0
  4  5  1  0
  5  6  2  0
  5  7  1  0
  7  8  1  6
  7  9  1  0
  9 10  1  0
 10 11  2  0
 10 12  2  0
 10 13  1  6
 13 14  4  0
 14 15  1  0
 14 16  4  0
 16 17  1  0
 16 18  4  0
 18 19  1  0
 18 20  4  0
 20 21  4  0
 21 22  4  0
 22 23  4  0
 23 24  4  0
  9 25  1  0
 25 26  1  0
 25 27  1  0
 25 28  1  0
 28 29  1  0
 28 30  1  0
 28 31  1  0
 31 32  1  0
 31 33  1  0
  4 34  1  0
 34 35  4  0
 35 36  1  0
 35 37  4  0
 37 38  1  0
 37 39  4  0
 39 40  1  0
 39 41  4  0
 41 42  1  0
 41 43  4  0
 43 44  1  0
  3 45  1  0
  3 46  1  0
  1 47  1  0
  1 48  1  0
 31  7  1  0
 43 34  4  0
 24 13  4  0
 24 20  4  0
M  END
>  <sample_id>  (324)
train::CCN(C(=O)C1CCCN1S(=O)(=O)c1cccc2nsnc12)c1ccccc1__gen0002

>  <partition>  (324)
BAT_EXTERNAL_CONFIRM

>  <method>  (324)
BA_seed193

>  <candidate>  (324)
primary

$$$$
train::CCOc1nc(NC(=O)NS(=O)(=O)Oc2cccc(Cl)c2)nc(-c2ccccc2)n1__gen0000
     RDKit          3D

 46 48  0  0  0  0  0  0  0  0999 V2000
    4.0332    1.0092    2.2460 C   0  0  0  0  0  0  0  0  0  0  0  0
    3.8600    2.2364    1.3677 C   0  0  0  0  0  0  0  0  0  1  0  0
    3.3578    3.0437    1.9192 H   0  0  0  0  0  0  0  0  0  2  0  0
    4.8202    2.5863    0.9805 H   0  0  0  0  0  0  0  0  0  3  0  0
    3.0966    1.9369    0.1981 O   0  0  0  0  0  0  0  0  0  4  0  0
    1.8016    1.7459    0.3412 C   0  0  0  0  0  0  0  0  0  5  0  0
    1.1511    1.2983   -0.7261 N   0  0  0  0  0  0  0  0  0  6  0  0
   -0.1581    1.1387   -0.5690 C   0  0  0  0  0  0  0  0  0  7  0  0
   -0.9207    0.6733   -1.7198 C   0  0  0  0  0  0  0  0  0 32  0  0
   -0.2415    0.1799   -2.8296 C   0  0  0  0  0  0  0  0  0 33  0  0
    0.8371    0.1579   -2.8078 H   0  0  0  0  0  0  0  0  0 42  0  0
   -0.9524   -0.3016   -3.9151 C   0  0  0  0  0  0  0  0  0 34  0  0
   -0.4345   -0.6916   -4.7815 H   0  0  0  0  0  0  0  0  0 41  0  0
   -2.3374   -0.2587   -3.9164 C   0  0  0  0  0  0  0  0  0 35  0  0
   -2.8868   -0.6416   -4.7684 H   0  0  0  0  0  0  0  0  0 40  0  0
   -3.0143    0.2242   -2.8046 C   0  0  0  0  0  0  0  0  0 36  0  0
   -4.0927    0.2750   -2.8055 H   0  0  0  0  0  0  0  0  0 39  0  0
   -2.3113    0.7077   -1.7187 C   0  0  0  0  0  0  0  0  0 37  0  0
   -2.8228    1.1027   -0.8554 H   0  0  0  0  0  0  0  0  0 38  0  0
   -0.8191    1.3718    0.5742 N   0  0  0  0  0  0  0  0  0  8  0  0
   -0.0659    1.8037    1.5797 C   0  0  0  0  0  0  0  0  0  9  0  0
   -0.6418    2.0782    2.7896 N   0  0  0  0  0  0  0  0  0 11  0  0
   -1.7993    1.5725    3.3358 C   0  0  0  0  0  0  0  0  0 12  0  0
   -2.3962    2.1208    4.2367 O   0  0  0  0  0  0  0  0  0 13  0  0
   -2.2705    0.4013    2.7271 N   0  0  0  0  0  0  0  0  0 14  0  0
   -1.3004   -0.9321    2.4849 S   0  0  2  0  0  6  0  0  0 15  0  0
   -1.8720   -2.0016    3.2263 O   0  0  0  0  0  0  0  0  0 16  0  0
    0.0662   -0.5984    2.6747 O   0  0  0  0  0  0  0  0  0 17  0  0
   -1.6869   -1.2120    0.9496 O   0  0  0  0  0  0  0  0  0 18  0  0
   -0.8999   -1.8189    0.0202 C   0  0  0  0  0  0  0  0  0 19  0  0
   -1.5694   -2.4437   -1.0332 C   0  0  0  0  0  0  0  0  0 20  0  0
   -2.6543   -2.4267   -1.0525 H   0  0  0  0  0  0  0  0  0 29  0  0
   -0.8582   -3.0553   -2.0492 C   0  0  0  0  0  0  0  0  0 21  0  0
   -1.3814   -3.5115   -2.8756 H   0  0  0  0  0  0  0  0  0 28  0  0
    0.5236   -3.0503   -2.0310 C   0  0  0  0  0  0  0  0  0 22  0  0
    1.0830   -3.5256   -2.8223 H   0  0  0  0  0  0  0  0  0 27  0  0
    1.1809   -2.4567   -0.9672 C   0  0  0  0  0  0  0  0  0 23  0  0
    2.9032   -2.4493   -0.9162 Cl  0  0  0  0  0  0  0  0  0 26  0  0
    0.4855   -1.8402    0.0589 C   0  0  0  0  0  0  0  0  0 24  0  0
    1.0010   -1.3714    0.8777 H   0  0  0  0  0  0  0  0  0 25  0  0
   -3.1934    0.1264    3.0486 H   0  0  0  0  0  0  0  0  0 30  0  0
   -0.0853    2.6406    3.4200 H   0  0  0  0  0  0  0  0  0 31  0  0
    1.2361    2.0304    1.5152 N   0  0  0  0  0  0  0  0  0 10  0  0
    4.6665    1.2627    3.0928 H   0  0  0  0  0  0  0  0  0 43  0  0
    3.0679    0.6646    2.6179 H   0  0  0  0  0  0  0  0  0 44  0  0
    4.4949    0.1981    1.6825 H   0  0  0  0  0  0  0  0  0 45  0  0
  1  2  1  0
  2  3  1  0
  2  4  1  0
  2  5  1  0
  5  6  1  0
  6  7  4  0
  7  8  4  0
  8  9  1  0
  9 10  4  0
 10 11  1  0
 10 12  4  0
 12 13  1  0
 12 14  4  0
 14 15  1  0
 14 16  4  0
 16 17  1  0
 16 18  4  0
 18 19  1  0
  8 20  4  0
 20 21  4  0
 21 22  1  0
 22 23  1  0
 23 24  2  0
 23 25  1  0
 25 26  1  0
 26 27  2  0
 26 28  2  0
 26 29  1  6
 29 30  1  0
 30 31  4  0
 31 32  1  0
 31 33  4  0
 33 34  1  0
 33 35  4  0
 35 36  1  0
 35 37  4  0
 37 38  1  0
 37 39  4  0
 39 40  1  0
 25 41  1  0
 22 42  1  0
 21 43  4  0
  1 44  1  0
  1 45  1  0
  1 46  1  0
 43  6  4  0
 18  9  4  0
 39 30  4  0
M  END
>  <sample_id>  (325)
train::CCOc1nc(NC(=O)NS(=O)(=O)Oc2cccc(Cl)c2)nc(-c2ccccc2)n1__gen0000

>  <partition>  (325)
BAT_EXTERNAL_CONFIRM

>  <method>  (325)
BA_seed193

>  <candidate>  (325)
primary

$$$$
train::CCOc1nc(NC(=O)NS(=O)(=O)Oc2cccc(Cl)c2)nc(-c2ccccc2)n1__gen0001
     RDKit          3D

 46 48  0  0  0  0  0  0  0  0999 V2000
    4.9459    0.9160   -3.2268 C   0  0  0  0  0  0  0  0  0  0  0  0
    4.7905   -0.5601   -2.9114 C   0  0  0  0  0  0  0  0  0  1  0  0
    5.5463   -1.1567   -3.4245 H   0  0  0  0  0  0  0  0  0  2  0  0
    4.8514   -0.7124   -1.8356 H   0  0  0  0  0  0  0  0  0  3  0  0
    3.5576   -1.0736   -3.3961 O   0  0  0  0  0  0  0  0  0  4  0  0
    2.4652   -0.8615   -2.6911 C   0  0  0  0  0  0  0  0  0  5  0  0
    1.3761   -1.3855   -3.1861 N   0  0  0  0  0  0  0  0  0  6  0  0
    0.2533   -1.1790   -2.4715 C   0  0  0  0  0  0  0  0  0  7  0  0
   -1.0068   -1.7334   -2.9760 C   0  0  0  0  0  0  0  0  0 32  0  0
   -0.9938   -2.5329   -4.1121 C   0  0  0  0  0  0  0  0  0 33  0  0
   -0.0568   -2.7308   -4.6089 H   0  0  0  0  0  0  0  0  0 42  0  0
   -2.1716   -3.0560   -4.6030 C   0  0  0  0  0  0  0  0  0 34  0  0
   -2.1622   -3.6835   -5.4873 H   0  0  0  0  0  0  0  0  0 41  0  0
   -3.3709   -2.7807   -3.9702 C   0  0  0  0  0  0  0  0  0 35  0  0
   -4.2930   -3.2030   -4.3497 H   0  0  0  0  0  0  0  0  0 40  0  0
   -3.3921   -1.9908   -2.8313 C   0  0  0  0  0  0  0  0  0 36  0  0
   -4.3285   -1.7864   -2.3300 H   0  0  0  0  0  0  0  0  0 39  0  0
   -2.2125   -1.4579   -2.3337 C   0  0  0  0  0  0  0  0  0 37  0  0
   -2.2305   -0.8358   -1.4520 H   0  0  0  0  0  0  0  0  0 38  0  0
    0.2248   -0.5064   -1.3196 N   0  0  0  0  0  0  0  0  0  8  0  0
    1.3886    0.0081   -0.9275 C   0  0  0  0  0  0  0  0  0  9  0  0
    1.4648    0.7178    0.2299 N   0  0  0  0  0  0  0  0  0 11  0  0
    0.4868    0.9811    1.1836 C   0  0  0  0  0  0  0  0  0 12  0  0
    0.7561    1.5864    2.1976 O   0  0  0  0  0  0  0  0  0 13  0  0
   -0.7485    0.4896    0.8814 N   0  0  0  0  0  0  0  0  0 14  0  0
   -2.0543    0.7063    1.8812 S   0  0  2  0  0  6  0  0  0 15  0  0
   -3.0498   -0.1765    1.3776 O   0  0  0  0  0  0  0  0  0 16  0  0
   -2.3624    2.0867    2.0306 O   0  0  0  0  0  0  0  0  0 17  0  0
   -1.5053    0.1002    3.2741 O   0  0  0  0  0  0  0  0  0 18  0  0
   -1.4773    0.9435    4.3527 C   0  0  0  0  0  0  0  0  0 19  0  0
   -2.6520    1.5125    4.8418 C   0  0  0  0  0  0  0  0  0 20  0  0
   -3.5723    1.3165    4.3211 H   0  0  0  0  0  0  0  0  0 29  0  0
   -2.6076    2.3550    5.9323 C   0  0  0  0  0  0  0  0  0 21  0  0
   -3.5100    2.7847    6.3171 H   0  0  0  0  0  0  0  0  0 28  0  0
   -1.4050    2.6063    6.5790 C   0  0  0  0  0  0  0  0  0 22  0  0
   -1.3528    3.2594    7.4376 H   0  0  0  0  0  0  0  0  0 27  0  0
   -0.2452    2.0298    6.0960 C   0  0  0  0  0  0  0  0  0 23  0  0
    1.2634    2.3448    6.8666 Cl  0  0  0  0  0  0  0  0  0 26  0  0
   -0.2680    1.1979    4.9902 C   0  0  0  0  0  0  0  0  0 24  0  0
    0.6475    0.7530    4.6132 H   0  0  0  0  0  0  0  0  0 25  0  0
   -0.8575   -0.0977    0.0462 H   0  0  0  0  0  0  0  0  0 30  0  0
    2.3852    1.0764    0.4456 H   0  0  0  0  0  0  0  0  0 31  0  0
    2.5423   -0.1366   -1.5672 N   0  0  0  0  0  0  0  0  0 10  0  0
    5.9104    1.2710   -2.8670 H   0  0  0  0  0  0  0  0  0 43  0  0
    4.8630    1.0944   -4.2908 H   0  0  0  0  0  0  0  0  0 44  0  0
    4.1676    1.4996   -2.7261 H   0  0  0  0  0  0  0  0  0 45  0  0
  1  2  1  0
  2  3  1  0
  2  4  1  0
  2  5  1  0
  5  6  1  0
  6  7  4  0
  7  8  4  0
  8  9  1  0
  9 10  4  0
 10 11  1  0
 10 12  4  0
 12 13  1  0
 12 14  4  0
 14 15  1  0
 14 16  4  0
 16 17  1  0
 16 18  4  0
 18 19  1  0
  8 20  4  0
 20 21  4  0
 21 22  1  0
 22 23  1  0
 23 24  2  0
 23 25  1  0
 25 26  1  0
 26 27  2  0
 26 28  2  0
 26 29  1  1
 29 30  1  0
 30 31  4  0
 31 32  1  0
 31 33  4  0
 33 34  1  0
 33 35  4  0
 35 36  1  0
 35 37  4  0
 37 38  1  0
 37 39  4  0
 39 40  1  0
 25 41  1  0
 22 42  1  0
 21 43  4  0
  1 44  1  0
  1 45  1  0
  1 46  1  0
 43  6  4  0
 18  9  4  0
 39 30  4  0
M  END
>  <sample_id>  (326)
train::CCOc1nc(NC(=O)NS(=O)(=O)Oc2cccc(Cl)c2)nc(-c2ccccc2)n1__gen0001

>  <partition>  (326)
BAT_EXTERNAL_CONFIRM

>  <method>  (326)
BA_seed193

>  <candidate>  (326)
primary

$$$$
train::CCOc1nc(NC(=O)NS(=O)(=O)Oc2cccc(Cl)c2)nc(-c2ccccc2)n1__gen0002
     RDKit          3D

 46 48  0  0  0  0  0  0  0  0999 V2000
   -3.8304   -3.0839    1.0292 C   0  0  0  0  0  0  0  0  0  0  0  0
   -4.0586   -2.5593   -0.3750 C   0  0  0  0  0  0  0  0  0  1  0  0
   -4.6254   -1.6274   -0.3379 H   0  0  0  0  0  0  0  0  0  2  0  0
   -4.5862   -3.2935   -0.9894 H   0  0  0  0  0  0  0  0  0  3  0  0
   -2.8404   -2.3479   -1.0681 O   0  0  0  0  0  0  0  0  0  4  0  0
   -2.1543   -1.2598   -0.7861 C   0  0  0  0  0  0  0  0  0  5  0  0
   -1.0703   -1.0317   -1.5389 N   0  0  0  0  0  0  0  0  0  6  0  0
   -0.3990    0.0776   -1.2685 C   0  0  0  0  0  0  0  0  0  7  0  0
    0.8081    0.3519   -2.0448 C   0  0  0  0  0  0  0  0  0 32  0  0
    1.3239   -0.6270   -2.8940 C   0  0  0  0  0  0  0  0  0 33  0  0
    0.8099   -1.5685   -2.9594 H   0  0  0  0  0  0  0  0  0 42  0  0
    2.4471   -0.3743   -3.6297 C   0  0  0  0  0  0  0  0  0 34  0  0
    2.8572   -1.1260   -4.2891 H   0  0  0  0  0  0  0  0  0 41  0  0
    3.0845    0.8579   -3.5364 C   0  0  0  0  0  0  0  0  0 35  0  0
    3.9901    1.0390   -4.0951 H   0  0  0  0  0  0  0  0  0 40  0  0
    2.5922    1.8256   -2.6803 C   0  0  0  0  0  0  0  0  0 36  0  0
    3.0837    2.7875   -2.5961 H   0  0  0  0  0  0  0  0  0 39  0  0
    1.4508    1.5877   -1.9376 C   0  0  0  0  0  0  0  0  0 37  0  0
    1.0550    2.3497   -1.2858 H   0  0  0  0  0  0  0  0  0 38  0  0
   -0.7306    0.9339   -0.2836 N   0  0  0  0  0  0  0  0  0  8  0  0
   -1.8152    0.6075    0.3908 C   0  0  0  0  0  0  0  0  0  9  0  0
   -2.1909    1.4120    1.4575 N   0  0  0  0  0  0  0  0  0 11  0  0
   -1.4178    2.2998    2.1836 C   0  0  0  0  0  0  0  0  0 12  0  0
   -1.6604    2.5905    3.3106 O   0  0  0  0  0  0  0  0  0 13  0  0
   -0.3207    2.7986    1.4782 N   0  0  0  0  0  0  0  0  0 14  0  0
    1.1461    3.0841    2.3035 S   0  0  2  0  0  6  0  0  0 15  0  0
    0.9953    3.9900    3.3441 O   0  0  0  0  0  0  0  0  0 16  0  0
    2.0768    3.3079    1.2644 O   0  0  0  0  0  0  0  0  0 17  0  0
    1.3356    1.6217    2.9356 O   0  0  0  0  0  0  0  0  0 18  0  0
    1.5437    0.5539    2.0926 C   0  0  0  0  0  0  0  0  0 19  0  0
    0.6581   -0.5092    2.1521 C   0  0  0  0  0  0  0  0  0 20  0  0
   -0.1737   -0.4561    2.8445 H   0  0  0  0  0  0  0  0  0 29  0  0
    0.8197   -1.5984    1.3240 C   0  0  0  0  0  0  0  0  0 21  0  0
    0.1482   -2.4417    1.3732 H   0  0  0  0  0  0  0  0  0 28  0  0
    1.8934   -1.6604    0.4427 C   0  0  0  0  0  0  0  0  0 22  0  0
    2.0410   -2.4940   -0.1997 H   0  0  0  0  0  0  0  0  0 27  0  0
    2.7666   -0.5805    0.3815 C   0  0  0  0  0  0  0  0  0 23  0  0
    4.1171   -0.6388   -0.6760 Cl  0  0  0  0  0  0  0  0  0 26  0  0
    2.6169    0.5169    1.2066 C   0  0  0  0  0  0  0  0  0 24  0  0
    3.2944    1.3616    1.1639 H   0  0  0  0  0  0  0  0  0 25  0  0
   -0.1594    2.3811    0.5643 H   0  0  0  0  0  0  0  0  0 30  0  0
   -3.0267    1.0849    1.9498 H   0  0  0  0  0  0  0  0  0 31  0  0
   -2.5675   -0.4522    0.1870 N   0  0  0  0  0  0  0  0  0 10  0  0
   -3.2862   -2.3759    1.6174 H   0  0  0  0  0  0  0  0  0 43  0  0
   -3.2527   -4.0121    0.9812 H   0  0  0  0  0  0  0  0  0 44  0  0
   -4.7890   -3.3026    1.4930 H   0  0  0  0  0  0  0  0  0 45  0  0
  1  2  1  0
  2  3  1  0
  2  4  1  0
  2  5  1  0
  5  6  1  0
  6  7  4  0
  7  8  4  0
  8  9  1  0
  9 10  4  0
 10 11  1  0
 10 12  4  0
 12 13  1  0
 12 14  4  0
 14 15  1  0
 14 16  4  0
 16 17  1  0
 16 18  4  0
 18 19  1  0
  8 20  4  0
 20 21  4  0
 21 22  1  0
 22 23  1  0
 23 24  2  0
 23 25  1  0
 25 26  1  0
 26 27  2  0
 26 28  2  0
 26 29  1  1
 29 30  1  0
 30 31  4  0
 31 32  1  0
 31 33  4  0
 33 34  1  0
 33 35  4  0
 35 36  1  0
 35 37  4  0
 37 38  1  0
 37 39  4  0
 39 40  1  0
 25 41  1  0
 22 42  1  0
 21 43  4  0
  1 44  1  0
  1 45  1  0
  1 46  1  0
 43  6  4  0
 18  9  4  0
 39 30  4  0
M  END
>  <sample_id>  (327)
train::CCOc1nc(NC(=O)NS(=O)(=O)Oc2cccc(Cl)c2)nc(-c2ccccc2)n1__gen0002

>  <partition>  (327)
BAT_EXTERNAL_CONFIRM

>  <method>  (327)
BA_seed193

>  <candidate>  (327)
primary

$$$$
train::O=C(C1=COCCO1)N1CCN(S(=O)(=O)c2cccc(Cl)c2Cl)CC1__gen0000
     RDKit          3D

 41 43  0  0  0  0  0  0  0  0999 V2000
   -1.7537    0.4886    2.7295 O   0  0  0  0  0  0  0  0  0  0  0  0
   -1.9692    0.5364    1.5335 C   0  0  0  0  0  0  0  0  0  1  0  0
   -1.6621    1.6540    0.7986 N   0  0  0  0  0  0  0  0  0  2  0  0
   -1.8167    1.8038   -0.6319 C   0  0  0  0  0  0  0  0  0  3  0  0
   -1.8523    2.8689   -0.8342 H   0  0  0  0  0  0  0  0  0  4  0  0
   -2.7480    1.3680   -0.9786 H   0  0  0  0  0  0  0  0  0 29  0  0
   -0.6099    1.1685   -1.3470 C   0  0  0  0  0  0  0  0  0  5  0  0
   -0.7889    0.1322   -1.6117 H   0  0  0  0  0  0  0  0  0 27  0  0
   -0.3734    1.7277   -2.2677 H   0  0  0  0  0  0  0  0  0 28  0  0
    0.5491    1.1708   -0.4795 N   0  0  0  0  0  0  0  0  0  6  0  0
    0.9383   -0.2823    0.2661 S   0  0  1  0  0  6  0  0  0  7  0  0
    0.8552   -0.1586    1.6899 O   0  0  0  0  0  0  0  0  0  8  0  0
    0.2339   -1.3406   -0.3888 O   0  0  0  0  0  0  0  0  0  9  0  0
    2.6921   -0.3847   -0.1050 C   0  0  0  0  0  0  0  0  0 10  0  0
    3.5950   -0.4017    0.9451 C   0  0  0  0  0  0  0  0  0 11  0  0
    3.2121   -0.3577    1.9430 H   0  0  0  0  0  0  0  0  0 20  0  0
    4.9508   -0.4811    0.6800 C   0  0  0  0  0  0  0  0  0 12  0  0
    5.6633   -0.5025    1.4895 H   0  0  0  0  0  0  0  0  0 19  0  0
    5.4025   -0.5591   -0.6238 C   0  0  0  0  0  0  0  0  0 13  0  0
    6.4550   -0.6283   -0.8404 H   0  0  0  0  0  0  0  0  0 18  0  0
    4.4955   -0.5254   -1.6764 C   0  0  0  0  0  0  0  0  0 14  0  0
    5.0872   -0.6079   -3.2963 Cl  0  0  0  0  0  0  0  0  0 17  0  0
    3.1252   -0.4428   -1.4167 C   0  0  0  0  0  0  0  0  0 15  0  0
    1.9928   -0.3972   -2.6897 Cl  0  0  0  0  0  0  0  0  0 16  0  0
    0.6461    2.3436    0.3739 C   0  0  0  0  0  0  0  0  0 21  0  0
    0.7622    3.2156   -0.2691 H   0  0  0  0  0  0  0  0  0 22  0  0
    1.5645    2.2329    0.9533 H   0  0  0  0  0  0  0  0  0 26  0  0
   -0.5830    2.4799    1.3057 C   0  0  0  0  0  0  0  0  0 23  0  0
   -0.3543    2.1359    2.3149 H   0  0  0  0  0  0  0  0  0 24  0  0
   -0.9124    3.5260    1.3440 H   0  0  0  0  0  0  0  0  0 25  0  0
   -2.6364   -0.5987    0.8592 C   0  0  0  0  0  0  0  0  0 30  0  0
   -2.5825   -1.7996    1.4953 C   0  0  0  0  0  0  0  0  0 31  0  0
   -2.1587   -1.8822    2.4825 H   0  0  0  0  0  0  0  0  0 40  0  0
   -3.0566   -2.9511    0.9958 O   0  0  0  0  0  0  0  0  0 32  0  0
   -3.3530   -2.8737   -0.3639 C   0  0  0  0  0  0  0  0  0 33  0  0
   -2.3936   -2.9179   -0.8983 H   0  0  0  0  0  0  0  0  0 34  0  0
   -3.9677   -3.7256   -0.6190 H   0  0  0  0  0  0  0  0  0 39  0  0
   -4.0837   -1.5714   -0.6715 C   0  0  0  0  0  0  0  0  0 35  0  0
   -5.0029   -1.5382   -0.0943 H   0  0  0  0  0  0  0  0  0 36  0  0
   -4.3122   -1.4673   -1.7337 H   0  0  0  0  0  0  0  0  0 38  0  0
   -3.2497   -0.4575   -0.3621 O   0  0  0  0  0  0  0  0  0 37  0  0
  1  2  2  0
  2  3  1  0
  3  4  1  0
  4  5  1  0
  4  6  1  0
  4  7  1  0
  7  8  1  0
  7  9  1  0
  7 10  1  0
 10 11  1  0
 11 12  2  0
 11 13  2  0
 11 14  1  1
 14 15  4  0
 15 16  1  0
 15 17  4  0
 17 18  1  0
 17 19  4  0
 19 20  1  0
 19 21  4  0
 21 22  1  0
 21 23  4  0
 23 24  1  0
 10 25  1  0
 25 26  1  0
 25 27  1  0
 25 28  1  0
 28 29  1  0
 28 30  1  0
  2 31  1  0
 31 32  2  0
 32 33  1  0
 32 34  1  0
 34 35  1  0
 35 36  1  0
 35 37  1  0
 35 38  1  0
 38 39  1  0
 38 40  1  0
 38 41  1  0
 28  3  1  0
 41 31  1  0
 23 14  4  0
M  END
>  <sample_id>  (328)
train::O=C(C1=COCCO1)N1CCN(S(=O)(=O)c2cccc(Cl)c2Cl)CC1__gen0000

>  <partition>  (328)
BAT_EXTERNAL_CONFIRM

>  <method>  (328)
BA_seed193

>  <candidate>  (328)
primary

$$$$
train::O=C(C1=COCCO1)N1CCN(S(=O)(=O)c2cccc(Cl)c2Cl)CC1__gen0001
     RDKit          3D

 41 43  0  0  0  0  0  0  0  0999 V2000
   -2.3845    0.0520    0.8559 O   0  0  0  0  0  0  0  0  0  0  0  0
   -1.5626    0.1111   -0.0392 C   0  0  0  0  0  0  0  0  0  1  0  0
   -1.1382   -1.0022   -0.6715 N   0  0  0  0  0  0  0  0  0  2  0  0
   -0.1445   -1.0850   -1.7178 C   0  0  0  0  0  0  0  0  0  3  0  0
    0.6076   -0.3077   -1.5575 H   0  0  0  0  0  0  0  0  0  4  0  0
   -0.6063   -0.9398   -2.7013 H   0  0  0  0  0  0  0  0  0 29  0  0
    0.5194   -2.4681   -1.6761 C   0  0  0  0  0  0  0  0  0  5  0  0
    1.5637   -2.3945   -1.9854 H   0  0  0  0  0  0  0  0  0 27  0  0
    0.0078   -3.1830   -2.3287 H   0  0  0  0  0  0  0  0  0 28  0  0
    0.5181   -3.0336   -0.3536 N   0  0  0  0  0  0  0  0  0  6  0  0
    1.6786   -2.5096    0.7258 S   0  0  1  0  0  6  0  0  0  7  0  0
    1.6459   -3.4109    1.8333 O   0  0  0  0  0  0  0  0  0  8  0  0
    2.8912   -2.3995   -0.0359 O   0  0  0  0  0  0  0  0  0  9  0  0
    1.2905   -0.8357    1.3077 C   0  0  0  0  0  0  0  0  0 10  0  0
    2.0039    0.1830    0.7038 C   0  0  0  0  0  0  0  0  0 11  0  0
    2.7187   -0.0749   -0.0617 H   0  0  0  0  0  0  0  0  0 20  0  0
    1.8428    1.4970    1.1116 C   0  0  0  0  0  0  0  0  0 12  0  0
    2.3941    2.2922    0.6280 H   0  0  0  0  0  0  0  0  0 19  0  0
    0.9364    1.7954    2.1111 C   0  0  0  0  0  0  0  0  0 13  0  0
    0.7682    2.8154    2.4283 H   0  0  0  0  0  0  0  0  0 18  0  0
    0.2319    0.7757    2.7302 C   0  0  0  0  0  0  0  0  0 14  0  0
   -0.8825    1.1585    3.9891 Cl  0  0  0  0  0  0  0  0  0 17  0  0
    0.4317   -0.5445    2.3617 C   0  0  0  0  0  0  0  0  0 15  0  0
   -0.3857   -1.8034    3.1896 Cl  0  0  0  0  0  0  0  0  0 16  0  0
   -0.8014   -3.3054    0.1457 C   0  0  0  0  0  0  0  0  0 21  0  0
   -1.1078   -4.3088   -0.1582 H   0  0  0  0  0  0  0  0  0 22  0  0
   -0.7569   -3.2903    1.2363 H   0  0  0  0  0  0  0  0  0 26  0  0
   -1.8013   -2.2585   -0.3855 C   0  0  0  0  0  0  0  0  0 23  0  0
   -2.2589   -2.6333   -1.3059 H   0  0  0  0  0  0  0  0  0 24  0  0
   -2.5930   -2.0700    0.3490 H   0  0  0  0  0  0  0  0  0 25  0  0
   -1.0231    1.4327   -0.4341 C   0  0  0  0  0  0  0  0  0 30  0  0
   -1.5816    2.5207    0.1264 C   0  0  0  0  0  0  0  0  0 31  0  0
   -2.4039    2.4610    0.7948 H   0  0  0  0  0  0  0  0  0 40  0  0
   -1.2649    3.7969   -0.1754 O   0  0  0  0  0  0  0  0  0 32  0  0
   -0.0763    3.9495   -0.9291 C   0  0  0  0  0  0  0  0  0 33  0  0
   -0.1462    4.9460   -1.3636 H   0  0  0  0  0  0  0  0  0 34  0  0
    0.8219    3.8624   -0.3164 H   0  0  0  0  0  0  0  0  0 39  0  0
   -0.0100    2.8390   -1.9636 C   0  0  0  0  0  0  0  0  0 35  0  0
   -0.8762    2.9118   -2.6224 H   0  0  0  0  0  0  0  0  0 36  0  0
    0.9137    2.8765   -2.5418 H   0  0  0  0  0  0  0  0  0 38  0  0
    0.0196    1.5821   -1.3033 O   0  0  0  0  0  0  0  0  0 37  0  0
  1  2  2  0
  2  3  1  0
  3  4  1  0
  4  5  1  0
  4  6  1  0
  4  7  1  0
  7  8  1  0
  7  9  1  0
  7 10  1  0
 10 11  1  0
 11 12  2  0
 11 13  2  0
 11 14  1  1
 14 15  4  0
 15 16  1  0
 15 17  4  0
 17 18  1  0
 17 19  4  0
 19 20  1  0
 19 21  4  0
 21 22  1  0
 21 23  4  0
 23 24  1  0
 10 25  1  0
 25 26  1  0
 25 27  1  0
 25 28  1  0
 28 29  1  0
 28 30  1  0
  2 31  1  0
 31 32  2  0
 32 33  1  0
 32 34  1  0
 34 35  1  0
 35 36  1  0
 35 37  1  0
 35 38  1  0
 38 39  1  0
 38 40  1  0
 38 41  1  0
 28  3  1  0
 41 31  1  0
 23 14  4  0
M  END
>  <sample_id>  (329)
train::O=C(C1=COCCO1)N1CCN(S(=O)(=O)c2cccc(Cl)c2Cl)CC1__gen0001

>  <partition>  (329)
BAT_EXTERNAL_CONFIRM

>  <method>  (329)
BA_seed193

>  <candidate>  (329)
primary

$$$$
train::O=C(C1=COCCO1)N1CCN(S(=O)(=O)c2cccc(Cl)c2Cl)CC1__gen0002
     RDKit          3D

 41 43  0  0  0  0  0  0  0  0999 V2000
    2.2980   -2.6340    0.0185 O   0  0  0  0  0  0  0  0  0  0  0  0
    1.1932   -2.4641   -0.4685 C   0  0  0  0  0  0  0  0  0  1  0  0
    0.2538   -1.6654    0.1042 N   0  0  0  0  0  0  0  0  0  2  0  0
    0.6283   -0.9849    1.3286 C   0  0  0  0  0  0  0  0  0  3  0  0
   -0.1837   -1.0879    2.0513 H   0  0  0  0  0  0  0  0  0  4  0  0
    1.5403   -1.4603    1.7080 H   0  0  0  0  0  0  0  0  0 29  0  0
    0.8725    0.5126    1.0420 C   0  0  0  0  0  0  0  0  0  5  0  0
    1.0356    1.0500    1.9779 H   0  0  0  0  0  0  0  0  0 27  0  0
    1.7513    0.6211    0.3997 H   0  0  0  0  0  0  0  0  0 28  0  0
   -0.2705    1.0966    0.3802 N   0  0  0  0  0  0  0  0  0  6  0  0
   -1.4905    1.5930    1.4154 S   0  0  1  0  0  6  0  0  0  7  0  0
   -2.6722    1.8159    0.6353 O   0  0  0  0  0  0  0  0  0  8  0  0
   -1.5936    0.7327    2.5574 O   0  0  0  0  0  0  0  0  0  9  0  0
   -0.8272    3.1644    1.9884 C   0  0  0  0  0  0  0  0  0 10  0  0
   -0.6160    3.3523    3.3413 C   0  0  0  0  0  0  0  0  0 11  0  0
   -0.8471    2.5312    4.0116 H   0  0  0  0  0  0  0  0  0 20  0  0
   -0.1107    4.5549    3.8002 C   0  0  0  0  0  0  0  0  0 12  0  0
    0.0630    4.7173    4.8482 H   0  0  0  0  0  0  0  0  0 19  0  0
    0.1838    5.5678    2.8993 C   0  0  0  0  0  0  0  0  0 13  0  0
    0.5615    6.5163    3.2460 H   0  0  0  0  0  0  0  0  0 18  0  0
   -0.0401    5.3865    1.5417 C   0  0  0  0  0  0  0  0  0 14  0  0
    0.3295    6.6502    0.4360 Cl  0  0  0  0  0  0  0  0  0 17  0  0
   -0.5353    4.1604    1.0859 C   0  0  0  0  0  0  0  0  0 15  0  0
   -0.8146    3.8982   -0.5899 Cl  0  0  0  0  0  0  0  0  0 16  0  0
   -0.6842    0.3809   -0.8052 C   0  0  0  0  0  0  0  0  0 21  0  0
   -1.6036    0.8537   -1.1606 H   0  0  0  0  0  0  0  0  0 22  0  0
    0.1047    0.4785   -1.5669 H   0  0  0  0  0  0  0  0  0 26  0  0
   -0.9361   -1.1080   -0.4936 C   0  0  0  0  0  0  0  0  0 23  0  0
   -1.1957   -1.6323   -1.4085 H   0  0  0  0  0  0  0  0  0 24  0  0
   -1.7382   -1.1898    0.2354 H   0  0  0  0  0  0  0  0  0 25  0  0
    0.8472   -3.1829   -1.7271 C   0  0  0  0  0  0  0  0  0 30  0  0
    1.8627   -3.7677   -2.4145 C   0  0  0  0  0  0  0  0  0 31  0  0
    2.8769   -3.7077   -2.0430 H   0  0  0  0  0  0  0  0  0 40  0  0
    1.7390   -4.4712   -3.5556 O   0  0  0  0  0  0  0  0  0 32  0  0
    0.4619   -4.3444   -4.1421 C   0  0  0  0  0  0  0  0  0 33  0  0
    0.3462   -5.1588   -4.8468 H   0  0  0  0  0  0  0  0  0 34  0  0
    0.3895   -3.3897   -4.6704 H   0  0  0  0  0  0  0  0  0 39  0  0
   -0.6100   -4.4067   -3.0417 C   0  0  0  0  0  0  0  0  0 35  0  0
   -1.6119   -4.3101   -3.4583 H   0  0  0  0  0  0  0  0  0 36  0  0
   -0.5143   -5.3544   -2.5019 H   0  0  0  0  0  0  0  0  0 38  0  0
   -0.4433   -3.3140   -2.1577 O   0  0  0  0  0  0  0  0  0 37  0  0
  1  2  2  0
  2  3  1  0
  3  4  1  0
  4  5  1  0
  4  6  1  0
  4  7  1  0
  7  8  1  0
  7  9  1  0
  7 10  1  0
 10 11  1  0
 11 12  2  0
 11 13  2  0
 11 14  1  1
 14 15  4  0
 15 16  1  0
 15 17  4  0
 17 18  1  0
 17 19  4  0
 19 20  1  0
 19 21  4  0
 21 22  1  0
 21 23  4  0
 23 24  1  0
 10 25  1  0
 25 26  1  0
 25 27  1  0
 25 28  1  0
 28 29  1  0
 28 30  1  0
  2 31  1  0
 31 32  2  0
 32 33  1  0
 32 34  1  0
 34 35  1  0
 35 36  1  0
 35 37  1  0
 35 38  1  0
 38 39  1  0
 38 40  1  0
 38 41  1  0
 28  3  1  0
 41 31  1  0
 23 14  4  0
M  END
>  <sample_id>  (330)
train::O=C(C1=COCCO1)N1CCN(S(=O)(=O)c2cccc(Cl)c2Cl)CC1__gen0002

>  <partition>  (330)
BAT_EXTERNAL_CONFIRM

>  <method>  (330)
BA_seed193

>  <candidate>  (330)
primary

$$$$
train::Nc1ccc(C(=O)N_N=C_c2cn(Cc3ccccc3)c3ccccc23)cc1__gen0000
     RDKit          3D

 48 51  0  0  0  0  0  0  0  0999 V2000
    0.1769   -2.5982   -1.1169 N   0  0  0  0  0  0  0  0  0  0  0  0
    0.0973   -1.4086   -1.8156 C   0  0  0  0  0  0  0  0  0  1  0  0
    0.9217   -0.3395   -1.4726 C   0  0  0  0  0  0  0  0  0  2  0  0
    1.6473   -0.4663   -0.6863 H   0  0  0  0  0  0  0  0  0 45  0  0
    0.8092    0.8523   -2.1300 C   0  0  0  0  0  0  0  0  0  3  0  0
    1.4470    1.6810   -1.8603 H   0  0  0  0  0  0  0  0  0 44  0  0
   -0.1406    1.0368   -3.1487 C   0  0  0  0  0  0  0  0  0  4  0  0
   -0.3767    2.3842   -3.7353 C   0  0  0  0  0  0  0  0  0  9  0  0
   -0.3661    2.6467   -4.9173 O   0  0  0  0  0  0  0  0  0 10  0  0
   -0.5869    3.3878   -2.8068 N   0  0  0  0  0  0  0  0  0 11  0  0
   -0.6782    3.1858   -1.4629 N   0  0  0  0  0  0  0  0  0 12  0  0
   -1.4855    2.2767   -1.0714 C   0  0  0  0  0  0  0  0  0 13  0  0
   -1.3673    1.6232    0.1884 C   0  0  0  0  0  0  0  0  0 14  0  0
   -0.4187    1.8381    1.1672 C   0  0  0  0  0  0  0  0  0 15  0  0
    0.2811    2.6504    1.2337 H   0  0  0  0  0  0  0  0  0 41  0  0
   -0.4763    0.8651    2.1106 N   0  0  0  0  0  0  0  0  0 16  0  0
    0.5276    0.6855    3.1214 C   0  0  0  0  0  0  0  0  0 27  0  0
    1.7534    0.0197    2.5297 C   0  0  0  0  0  0  0  0  0 28  0  0
    2.8552    0.7740    2.1590 C   0  0  0  0  0  0  0  0  0 29  0  0
    2.8736    1.8331    2.3387 H   0  0  0  0  0  0  0  0  0 38  0  0
    3.9427    0.1787    1.5420 C   0  0  0  0  0  0  0  0  0 30  0  0
    4.8008    0.7596    1.2545 H   0  0  0  0  0  0  0  0  0 37  0  0
    3.9320   -1.1846    1.2986 C   0  0  0  0  0  0  0  0  0 31  0  0
    4.7659   -1.6656    0.8041 H   0  0  0  0  0  0  0  0  0 36  0  0
    2.8288   -1.9493    1.6596 C   0  0  0  0  0  0  0  0  0 32  0  0
    2.8246   -3.0123    1.4723 H   0  0  0  0  0  0  0  0  0 35  0  0
    1.7488   -1.3487    2.2875 C   0  0  0  0  0  0  0  0  0 33  0  0
    0.9001   -1.9378    2.5706 H   0  0  0  0  0  0  0  0  0 34  0  0
    0.1156    0.0631    3.9231 H   0  0  0  0  0  0  0  0  0 39  0  0
    0.7937    1.6686    3.5388 H   0  0  0  0  0  0  0  0  0 40  0  0
   -1.4228   -0.0565    1.7296 C   0  0  0  0  0  0  0  0  0 17  0  0
   -1.8304   -1.2400    2.3321 C   0  0  0  0  0  0  0  0  0 18  0  0
   -1.3799   -1.6011    3.2386 H   0  0  0  0  0  0  0  0  0 26  0  0
   -2.8209   -1.9755    1.7050 C   0  0  0  0  0  0  0  0  0 19  0  0
   -3.1392   -2.9109    2.1365 H   0  0  0  0  0  0  0  0  0 25  0  0
   -3.4003   -1.5507    0.5184 C   0  0  0  0  0  0  0  0  0 20  0  0
   -4.1617   -2.1587    0.0574 H   0  0  0  0  0  0  0  0  0 24  0  0
   -3.0207   -0.3633   -0.0706 C   0  0  0  0  0  0  0  0  0 21  0  0
   -3.4742   -0.0331   -1.0031 H   0  0  0  0  0  0  0  0  0 23  0  0
   -2.0257    0.4045    0.5409 C   0  0  0  0  0  0  0  0  0 22  0  0
   -2.1886    1.8185   -1.7506 H   0  0  0  0  0  0  0  0  0 42  0  0
   -0.4988    4.3316   -3.1350 H   0  0  0  0  0  0  0  0  0 43  0  0
   -0.9034   -0.0669   -3.5368 C   0  0  0  0  0  0  0  0  0  5  0  0
   -1.6111    0.0594   -4.3466 H   0  0  0  0  0  0  0  0  0  8  0  0
   -0.8161   -1.2670   -2.8588 C   0  0  0  0  0  0  0  0  0  6  0  0
   -1.4260   -2.1090   -3.1499 H   0  0  0  0  0  0  0  0  0  7  0  0
   -0.6382   -3.2005   -1.1760 H   0  0  0  0  0  0  0  0  0 46  0  0
    0.6113   -2.5808   -0.2067 H   0  0  0  0  0  0  0  0  0 47  0  0
  1  2  1  0
  2  3  4  0
  3  4  1  0
  3  5  4  0
  5  6  1  0
  5  7  4  0
  7  8  1  0
  8  9  2  0
  8 10  1  0
 10 11  1  0
 11 12  2  0
 12 13  1  0
 13 14  4  0
 14 15  1  0
 14 16  4  0
 16 17  1  0
 17 18  1  0
 18 19  4  0
 19 20  1  0
 19 21  4  0
 21 22  1  0
 21 23  4  0
 23 24  1  0
 23 25  4  0
 25 26  1  0
 25 27  4  0
 27 28  1  0
 17 29  1  0
 17 30  1  0
 16 31  4  0
 31 32  4  0
 32 33  1  0
 32 34  4  0
 34 35  1  0
 34 36  4  0
 36 37  1  0
 36 38  4  0
 38 39  1  0
 38 40  4  0
 12 41  1  0
 10 42  1  0
  7 43  4  0
 43 44  1  0
 43 45  4  0
 45 46  1  0
  1 47  1  0
  1 48  1  0
 45  2  4  0
 40 13  4  0
 27 18  4  0
 40 31  4  0
M  END
>  <sample_id>  (331)
train::Nc1ccc(C(=O)N_N=C_c2cn(Cc3ccccc3)c3ccccc23)cc1__gen0000

>  <partition>  (331)
BAT_EXTERNAL_CONFIRM

>  <method>  (331)
BA_seed193

>  <candidate>  (331)
primary

$$$$
train::Nc1ccc(C(=O)N_N=C_c2cn(Cc3ccccc3)c3ccccc23)cc1__gen0001
     RDKit          3D

 48 51  0  0  0  0  0  0  0  0999 V2000
    6.1948   -1.5817    0.2294 N   0  0  0  0  0  0  0  0  0  0  0  0
    5.0408   -2.2498    0.5829 C   0  0  0  0  0  0  0  0  0  1  0  0
    5.0817   -3.2889    1.5131 C   0  0  0  0  0  0  0  0  0  2  0  0
    6.0206   -3.6011    1.9294 H   0  0  0  0  0  0  0  0  0 45  0  0
    3.9167   -3.9342    1.8816 C   0  0  0  0  0  0  0  0  0  3  0  0
    3.9353   -4.7402    2.5922 H   0  0  0  0  0  0  0  0  0 44  0  0
    2.6909   -3.5549    1.3352 C   0  0  0  0  0  0  0  0  0  4  0  0
    1.5003   -4.2992    1.7965 C   0  0  0  0  0  0  0  0  0  9  0  0
    1.5449   -5.4417    2.2295 O   0  0  0  0  0  0  0  0  0 10  0  0
    0.2703   -3.6813    1.7521 N   0  0  0  0  0  0  0  0  0 11  0  0
    0.0409   -2.4163    1.4004 N   0  0  0  0  0  0  0  0  0 12  0  0
   -1.1341   -1.9326    1.4526 C   0  0  0  0  0  0  0  0  0 13  0  0
   -1.4070   -0.5933    1.0626 C   0  0  0  0  0  0  0  0  0 14  0  0
   -0.4766    0.3442    0.6669 C   0  0  0  0  0  0  0  0  0 15  0  0
    0.5842    0.2146    0.5835 H   0  0  0  0  0  0  0  0  0 41  0  0
   -1.0802    1.5207    0.3731 N   0  0  0  0  0  0  0  0  0 16  0  0
   -0.4354    2.7089   -0.1269 C   0  0  0  0  0  0  0  0  0 27  0  0
   -0.8254    3.0330   -1.5472 C   0  0  0  0  0  0  0  0  0 28  0  0
   -0.8865    4.3484   -1.9794 C   0  0  0  0  0  0  0  0  0 29  0  0
   -0.6374    5.1500   -1.2903 H   0  0  0  0  0  0  0  0  0 38  0  0
   -1.2202    4.6470   -3.2853 C   0  0  0  0  0  0  0  0  0 30  0  0
   -1.2489    5.6781   -3.6090 H   0  0  0  0  0  0  0  0  0 37  0  0
   -1.5216    3.6313   -4.1782 C   0  0  0  0  0  0  0  0  0 31  0  0
   -1.7949    3.8626   -5.2015 H   0  0  0  0  0  0  0  0  0 36  0  0
   -1.4874    2.3132   -3.7551 C   0  0  0  0  0  0  0  0  0 32  0  0
   -1.7288    1.5189   -4.4405 H   0  0  0  0  0  0  0  0  0 35  0  0
   -1.1364    2.0142   -2.4542 C   0  0  0  0  0  0  0  0  0 33  0  0
   -1.1061    0.9960   -2.1217 H   0  0  0  0  0  0  0  0  0 34  0  0
    0.6376    2.5642   -0.0643 H   0  0  0  0  0  0  0  0  0 39  0  0
   -0.7057    3.5485    0.5236 H   0  0  0  0  0  0  0  0  0 40  0  0
   -2.4310    1.3859    0.5745 C   0  0  0  0  0  0  0  0  0 17  0  0
   -3.4677    2.3017    0.3981 C   0  0  0  0  0  0  0  0  0 18  0  0
   -3.2666    3.3060    0.0567 H   0  0  0  0  0  0  0  0  0 26  0  0
   -4.7490    1.8918    0.6885 C   0  0  0  0  0  0  0  0  0 19  0  0
   -5.5659    2.5787    0.5674 H   0  0  0  0  0  0  0  0  0 25  0  0
   -5.0060    0.5938    1.1263 C   0  0  0  0  0  0  0  0  0 20  0  0
   -6.0244    0.3074    1.3459 H   0  0  0  0  0  0  0  0  0 24  0  0
   -3.9884   -0.3204    1.2953 C   0  0  0  0  0  0  0  0  0 21  0  0
   -4.1932   -1.3212    1.6446 H   0  0  0  0  0  0  0  0  0 23  0  0
   -2.6739    0.0654    1.0100 C   0  0  0  0  0  0  0  0  0 22  0  0
   -1.9843   -2.5383    1.7813 H   0  0  0  0  0  0  0  0  0 42  0  0
   -0.5107   -4.2605    2.1014 H   0  0  0  0  0  0  0  0  0 43  0  0
    2.6556   -2.5459    0.3685 C   0  0  0  0  0  0  0  0  0  5  0  0
    1.7161   -2.2674   -0.0789 H   0  0  0  0  0  0  0  0  0  8  0  0
    3.8132   -1.9016    0.0101 C   0  0  0  0  0  0  0  0  0  6  0  0
    3.7916   -1.1247   -0.7416 H   0  0  0  0  0  0  0  0  0  7  0  0
    7.0732   -1.9627    0.5482 H   0  0  0  0  0  0  0  0  0 46  0  0
    6.1845   -0.9665   -0.5474 H   0  0  0  0  0  0  0  0  0 47  0  0
  1  2  1  0
  2  3  4  0
  3  4  1  0
  3  5  4  0
  5  6  1  0
  5  7  4  0
  7  8  1  0
  8  9  2  0
  8 10  1  0
 10 11  1  0
 11 12  2  0
 12 13  1  0
 13 14  4  0
 14 15  1  0
 14 16  4  0
 16 17  1  0
 17 18  1  0
 18 19  4  0
 19 20  1  0
 19 21  4  0
 21 22  1  0
 21 23  4  0
 23 24  1  0
 23 25  4  0
 25 26  1  0
 25 27  4  0
 27 28  1  0
 17 29  1  0
 17 30  1  0
 16 31  4  0
 31 32  4  0
 32 33  1  0
 32 34  4  0
 34 35  1  0
 34 36  4  0
 36 37  1  0
 36 38  4  0
 38 39  1  0
 38 40  4  0
 12 41  1  0
 10 42  1  0
  7 43  4  0
 43 44  1  0
 43 45  4  0
 45 46  1  0
  1 47  1  0
  1 48  1  0
 45  2  4  0
 40 13  4  0
 27 18  4  0
 40 31  4  0
M  END
>  <sample_id>  (332)
train::Nc1ccc(C(=O)N_N=C_c2cn(Cc3ccccc3)c3ccccc23)cc1__gen0001

>  <partition>  (332)
BAT_EXTERNAL_CONFIRM

>  <method>  (332)
BA_seed193

>  <candidate>  (332)
primary

$$$$
train::Nc1ccc(C(=O)N_N=C_c2cn(Cc3ccccc3)c3ccccc23)cc1__gen0002
     RDKit          3D

 48 51  0  0  0  0  0  0  0  0999 V2000
    5.9219    1.3527   -0.6770 N   0  0  0  0  0  0  0  0  0  0  0  0
    4.7893    0.6988   -0.2444 C   0  0  0  0  0  0  0  0  0  1  0  0
    3.5481    0.9550   -0.8094 C   0  0  0  0  0  0  0  0  0  2  0  0
    3.4771    1.6407   -1.6410 H   0  0  0  0  0  0  0  0  0 45  0  0
    2.4140    0.3323   -0.3295 C   0  0  0  0  0  0  0  0  0  3  0  0
    1.4500    0.5301   -0.7660 H   0  0  0  0  0  0  0  0  0 44  0  0
    2.4816   -0.5399    0.7535 C   0  0  0  0  0  0  0  0  0  4  0  0
    1.2081   -1.1573    1.2047 C   0  0  0  0  0  0  0  0  0  9  0  0
    0.2991   -1.3798    0.4227 O   0  0  0  0  0  0  0  0  0 10  0  0
    1.1569   -1.4216    2.5358 N   0  0  0  0  0  0  0  0  0 11  0  0
    0.1945   -2.1158    3.2473 N   0  0  0  0  0  0  0  0  0 12  0  0
   -1.0321   -1.9919    2.9469 C   0  0  0  0  0  0  0  0  0 13  0  0
   -1.6804   -1.0307    2.0890 C   0  0  0  0  0  0  0  0  0 14  0  0
   -2.6343   -1.2817    1.1278 C   0  0  0  0  0  0  0  0  0 15  0  0
   -3.1016   -2.2053    0.8662 H   0  0  0  0  0  0  0  0  0 41  0  0
   -2.9387   -0.1389    0.4316 N   0  0  0  0  0  0  0  0  0 16  0  0
   -3.7394   -0.1057   -0.7573 C   0  0  0  0  0  0  0  0  0 27  0  0
   -2.9230   -0.4661   -1.9786 C   0  0  0  0  0  0  0  0  0 28  0  0
   -3.4737   -1.2287   -2.9916 C   0  0  0  0  0  0  0  0  0 29  0  0
   -4.4948   -1.5878   -2.8883 H   0  0  0  0  0  0  0  0  0 38  0  0
   -2.7363   -1.5316   -4.1210 C   0  0  0  0  0  0  0  0  0 30  0  0
   -3.1754   -2.1317   -4.9096 H   0  0  0  0  0  0  0  0  0 37  0  0
   -1.4354   -1.0772   -4.2379 C   0  0  0  0  0  0  0  0  0 31  0  0
   -0.8539   -1.3324   -5.1200 H   0  0  0  0  0  0  0  0  0 36  0  0
   -0.8755   -0.3203   -3.2373 C   0  0  0  0  0  0  0  0  0 32  0  0
    0.1435    0.0308   -3.3177 H   0  0  0  0  0  0  0  0  0 35  0  0
   -1.6154    0.0043   -2.1185 C   0  0  0  0  0  0  0  0  0 33  0  0
   -1.1590    0.5843   -1.3289 H   0  0  0  0  0  0  0  0  0 34  0  0
   -4.5677   -0.8123   -0.6484 H   0  0  0  0  0  0  0  0  0 39  0  0
   -4.1461    0.9088   -0.8804 H   0  0  0  0  0  0  0  0  0 40  0  0
   -2.1918    0.8912    0.9650 C   0  0  0  0  0  0  0  0  0 17  0  0
   -2.1344    2.2316    0.6071 C   0  0  0  0  0  0  0  0  0 18  0  0
   -2.7255    2.6354   -0.2025 H   0  0  0  0  0  0  0  0  0 26  0  0
   -1.2848    3.0483    1.3336 C   0  0  0  0  0  0  0  0  0 19  0  0
   -1.2035    4.0905    1.0865 H   0  0  0  0  0  0  0  0  0 25  0  0
   -0.5003    2.5459    2.3778 C   0  0  0  0  0  0  0  0  0 20  0  0
    0.1439    3.2155    2.9250 H   0  0  0  0  0  0  0  0  0 24  0  0
   -0.5509    1.2109    2.7218 C   0  0  0  0  0  0  0  0  0 21  0  0
    0.0592    0.8228    3.5268 H   0  0  0  0  0  0  0  0  0 23  0  0
   -1.4013    0.3713    2.0064 C   0  0  0  0  0  0  0  0  0 22  0  0
   -1.6773   -2.6898    3.4867 H   0  0  0  0  0  0  0  0  0 42  0  0
    2.0219   -1.3549    3.0694 H   0  0  0  0  0  0  0  0  0 43  0  0
    3.7450   -0.8281    1.2974 C   0  0  0  0  0  0  0  0  0  5  0  0
    3.8264   -1.5434    2.1055 H   0  0  0  0  0  0  0  0  0  8  0  0
    4.8698   -0.2057    0.8232 C   0  0  0  0  0  0  0  0  0  6  0  0
    5.8327   -0.4358    1.2521 H   0  0  0  0  0  0  0  0  0  7  0  0
    5.8553    1.8589   -1.5481 H   0  0  0  0  0  0  0  0  0 46  0  0
    6.8143    0.9542   -0.4566 H   0  0  0  0  0  0  0  0  0 47  0  0
  1  2  1  0
  2  3  4  0
  3  4  1  0
  3  5  4  0
  5  6  1  0
  5  7  4  0
  7  8  1  0
  8  9  2  0
  8 10  1  0
 10 11  1  0
 11 12  2  0
 12 13  1  0
 13 14  4  0
 14 15  1  0
 14 16  4  0
 16 17  1  0
 17 18  1  0
 18 19  4  0
 19 20  1  0
 19 21  4  0
 21 22  1  0
 21 23  4  0
 23 24  1  0
 23 25  4  0
 25 26  1  0
 25 27  4  0
 27 28  1  0
 17 29  1  0
 17 30  1  0
 16 31  4  0
 31 32  4  0
 32 33  1  0
 32 34  4  0
 34 35  1  0
 34 36  4  0
 36 37  1  0
 36 38  4  0
 38 39  1  0
 38 40  4  0
 12 41  1  0
 10 42  1  0
  7 43  4  0
 43 44  1  0
 43 45  4  0
 45 46  1  0
  1 47  1  0
  1 48  1  0
 45  2  4  0
 40 13  4  0
 27 18  4  0
 40 31  4  0
M  END
>  <sample_id>  (333)
train::Nc1ccc(C(=O)N_N=C_c2cn(Cc3ccccc3)c3ccccc23)cc1__gen0002

>  <partition>  (333)
BAT_EXTERNAL_CONFIRM

>  <method>  (333)
BA_seed193

>  <candidate>  (333)
primary

$$$$
train::Cc1ccc(C(=O)NCC(=O)NC2CCCC2)cc1__gen0000
     RDKit          3D

 39 40  0  0  0  0  0  0  0  0999 V2000
   -3.6832   -0.1736   -4.7071 C   0  0  0  0  0  0  0  0  0  0  0  0
   -3.0051    0.1011   -3.3996 C   0  0  0  0  0  0  0  0  0  1  0  0
   -2.9848   -0.8546   -2.4005 C   0  0  0  0  0  0  0  0  0  2  0  0
   -3.4383   -1.8232   -2.5824 H   0  0  0  0  0  0  0  0  0 35  0  0
   -2.3923   -0.6006   -1.1764 C   0  0  0  0  0  0  0  0  0  3  0  0
   -2.3690   -1.3793   -0.4290 H   0  0  0  0  0  0  0  0  0 34  0  0
   -1.7850    0.6298   -0.9328 C   0  0  0  0  0  0  0  0  0  4  0  0
   -1.1166    0.9646    0.3520 C   0  0  0  0  0  0  0  0  0  9  0  0
   -0.1271    1.6701    0.4030 O   0  0  0  0  0  0  0  0  0 10  0  0
   -1.6958    0.4328    1.4424 N   0  0  0  0  0  0  0  0  0 11  0  0
   -2.4430   -0.2210    1.3583 H   0  0  0  0  0  0  0  0  0 12  0  0
   -1.1321    0.6125    2.7728 C   0  0  0  0  0  0  0  0  0 13  0  0
   -0.7695    1.6483    2.8629 H   0  0  0  0  0  0  0  0  0 14  0  0
   -1.9213    0.4484    3.5199 H   0  0  0  0  0  0  0  0  0 15  0  0
    0.0368   -0.3416    3.0316 C   0  0  0  0  0  0  0  0  0 16  0  0
   -0.0574   -1.2950    3.7973 O   0  0  0  0  0  0  0  0  0 17  0  0
    1.1192   -0.0246    2.3195 N   0  0  0  0  0  0  0  0  0 18  0  0
    1.0560    0.7396    1.6523 H   0  0  0  0  0  0  0  0  0 19  0  0
    2.3082   -0.8499    2.2599 C   0  0  2  0  0  0  0  0  0 20  0  0
    2.2043   -1.6158    3.0274 H   0  0  0  0  0  0  0  0  0 21  0  0
    3.5675    0.0274    2.4567 C   0  0  0  0  0  0  0  0  0 22  0  0
    3.2686    1.0166    2.8039 H   0  0  0  0  0  0  0  0  0 32  0  0
    4.2331   -0.4078    3.2160 H   0  0  0  0  0  0  0  0  0 33  0  0
    4.2831    0.1014    1.1019 C   0  0  0  0  0  0  0  0  0 23  0  0
    5.1242   -0.5931    1.0629 H   0  0  0  0  0  0  0  0  0 24  0  0
    4.6409    1.0998    0.8726 H   0  0  0  0  0  0  0  0  0 31  0  0
    3.2187   -0.3571    0.0775 C   0  0  0  0  0  0  0  0  0 25  0  0
    3.6608   -0.7365   -0.8324 H   0  0  0  0  0  0  0  0  0 26  0  0
    2.5504    0.4569   -0.1622 H   0  0  0  0  0  0  0  0  0 27  0  0
    2.4630   -1.4358    0.8558 C   0  0  0  0  0  0  0  0  0 28  0  0
    1.5165   -1.7000    0.4156 H   0  0  0  0  0  0  0  0  0 29  0  0
    3.0803   -2.3587    0.9106 H   0  0  0  0  0  0  0  0  0 30  0  0
   -1.7822    1.5752   -1.9531 C   0  0  0  0  0  0  0  0  0  5  0  0
   -1.2896    2.5375   -1.7719 H   0  0  0  0  0  0  0  0  0  8  0  0
   -2.3759    1.3257   -3.1605 C   0  0  0  0  0  0  0  0  0  6  0  0
   -2.3869    2.0796   -3.9358 H   0  0  0  0  0  0  0  0  0  7  0  0
   -4.7052    0.1840   -4.6789 H   0  0  0  0  0  0  0  0  0 36  0  0
   -3.7005   -1.2376   -4.9231 H   0  0  0  0  0  0  0  0  0 37  0  0
   -3.1709    0.3543   -5.5270 H   0  0  0  0  0  0  0  0  0 38  0  0
  1  2  1  0
  2  3  4  0
  3  4  1  0
  3  5  4  0
  5  6  1  0
  5  7  4  0
  7  8  1  0
  8  9  2  0
  8 10  1  0
 10 11  1  0
 10 12  1  0
 12 13  1  0
 12 14  1  0
 12 15  1  0
 15 16  2  0
 15 17  1  0
 17 18  1  0
 17 19  1  0
 19 20  1  1
 19 21  1  0
 21 22  1  0
 21 23  1  0
 21 24  1  0
 24 25  1  0
 24 26  1  0
 24 27  1  0
 27 28  1  0
 27 29  1  0
 27 30  1  0
 30 31  1  0
 30 32  1  0
  7 33  4  0
 33 34  1  0
 33 35  4  0
 35 36  1  0
  1 37  1  0
  1 38  1  0
  1 39  1  0
 35  2  4  0
 30 19  1  0
M  END
>  <sample_id>  (334)
train::Cc1ccc(C(=O)NCC(=O)NC2CCCC2)cc1__gen0000

>  <partition>  (334)
BAT_EXTERNAL_CONFIRM

>  <method>  (334)
BA_seed193

>  <candidate>  (334)
primary

$$$$
train::Cc1ccc(C(=O)NCC(=O)NC2CCCC2)cc1__gen0001
     RDKit          3D

 39 40  0  0  0  0  0  0  0  0999 V2000
    0.0305   -5.9135   -1.2711 C   0  0  0  0  0  0  0  0  0  0  0  0
    0.2535   -4.4374   -1.2033 C   0  0  0  0  0  0  0  0  0  1  0  0
   -0.2942   -3.5941   -2.1698 C   0  0  0  0  0  0  0  0  0  2  0  0
   -0.9188   -4.0103   -2.9515 H   0  0  0  0  0  0  0  0  0 35  0  0
   -0.0689   -2.2318   -2.1207 C   0  0  0  0  0  0  0  0  0  3  0  0
   -0.5090   -1.5736   -2.8505 H   0  0  0  0  0  0  0  0  0 34  0  0
    0.7186   -1.6832   -1.1197 C   0  0  0  0  0  0  0  0  0  4  0  0
    0.9322   -0.2105   -1.1232 C   0  0  0  0  0  0  0  0  0  9  0  0
    0.0924    0.5735   -1.5387 O   0  0  0  0  0  0  0  0  0 10  0  0
    2.1180    0.2174   -0.6311 N   0  0  0  0  0  0  0  0  0 11  0  0
    2.7647   -0.4595   -0.2512 H   0  0  0  0  0  0  0  0  0 12  0  0
    2.4872    1.6175   -0.5776 C   0  0  0  0  0  0  0  0  0 13  0  0
    2.1275    2.0920   -1.4935 H   0  0  0  0  0  0  0  0  0 14  0  0
    3.5792    1.6890   -0.5234 H   0  0  0  0  0  0  0  0  0 15  0  0
    1.8727    2.3070    0.6339 C   0  0  0  0  0  0  0  0  0 16  0  0
    2.5465    2.6972    1.5695 O   0  0  0  0  0  0  0  0  0 17  0  0
    0.5374    2.4497    0.5230 N   0  0  0  0  0  0  0  0  0 18  0  0
    0.0796    2.0197   -0.2702 H   0  0  0  0  0  0  0  0  0 19  0  0
   -0.3028    2.9944    1.5611 C   0  0  2  0  0  0  0  0  0 20  0  0
    0.3784    3.4145    2.3173 H   0  0  0  0  0  0  0  0  0 21  0  0
   -1.1920    1.8976    2.1670 C   0  0  0  0  0  0  0  0  0 22  0  0
   -1.4573    2.1640    3.1880 H   0  0  0  0  0  0  0  0  0 32  0  0
   -0.7102    0.9259    2.1682 H   0  0  0  0  0  0  0  0  0 33  0  0
   -2.4317    1.9212    1.2847 C   0  0  0  0  0  0  0  0  0 23  0  0
   -2.2237    1.4597    0.3208 H   0  0  0  0  0  0  0  0  0 24  0  0
   -3.3010    1.4400    1.7324 H   0  0  0  0  0  0  0  0  0 31  0  0
   -2.6751    3.4168    1.0875 C   0  0  0  0  0  0  0  0  0 25  0  0
   -3.2921    3.6338    0.2142 H   0  0  0  0  0  0  0  0  0 26  0  0
   -3.1810    3.8688    1.9427 H   0  0  0  0  0  0  0  0  0 27  0  0
   -1.2730    4.0312    0.9646 C   0  0  0  0  0  0  0  0  0 28  0  0
   -1.2015    4.9837    1.4897 H   0  0  0  0  0  0  0  0  0 29  0  0
   -1.0165    4.2127   -0.0790 H   0  0  0  0  0  0  0  0  0 30  0  0
    1.2630   -2.5166   -0.1516 C   0  0  0  0  0  0  0  0  0  5  0  0
    1.8439   -2.1151    0.6637 H   0  0  0  0  0  0  0  0  0  8  0  0
    1.0225   -3.8742   -0.1939 C   0  0  0  0  0  0  0  0  0  6  0  0
    1.4500   -4.5163    0.5636 H   0  0  0  0  0  0  0  0  0  7  0  0
   -0.9185   -6.1452   -1.7426 H   0  0  0  0  0  0  0  0  0 36  0  0
    0.0515   -6.3565   -0.2755 H   0  0  0  0  0  0  0  0  0 37  0  0
    0.8182   -6.3894   -1.8541 H   0  0  0  0  0  0  0  0  0 38  0  0
  1  2  1  0
  2  3  4  0
  3  4  1  0
  3  5  4  0
  5  6  1  0
  5  7  4  0
  7  8  1  0
  8  9  2  0
  8 10  1  0
 10 11  1  0
 10 12  1  0
 12 13  1  0
 12 14  1  0
 12 15  1  0
 15 16  2  0
 15 17  1  0
 17 18  1  0
 17 19  1  0
 19 20  1  1
 19 21  1  0
 21 22  1  0
 21 23  1  0
 21 24  1  0
 24 25  1  0
 24 26  1  0
 24 27  1  0
 27 28  1  0
 27 29  1  0
 27 30  1  0
 30 31  1  0
 30 32  1  0
  7 33  4  0
 33 34  1  0
 33 35  4  0
 35 36  1  0
  1 37  1  0
  1 38  1  0
  1 39  1  0
 35  2  4  0
 30 19  1  0
M  END
>  <sample_id>  (335)
train::Cc1ccc(C(=O)NCC(=O)NC2CCCC2)cc1__gen0001

>  <partition>  (335)
BAT_EXTERNAL_CONFIRM

>  <method>  (335)
BA_seed193

>  <candidate>  (335)
primary

$$$$
train::Cc1ccc(C(=O)NCC(=O)NC2CCCC2)cc1__gen0002
     RDKit          3D

 39 40  0  0  0  0  0  0  0  0999 V2000
   -4.0223    4.4776    0.7730 C   0  0  0  0  0  0  0  0  0  0  0  0
   -2.8278    3.5498    0.8345 C   0  0  0  0  0  0  0  0  0  1  0  0
   -2.6222    2.7288    1.9307 C   0  0  0  0  0  0  0  0  0  2  0  0
   -3.3311    2.7321    2.7481 H   0  0  0  0  0  0  0  0  0 35  0  0
   -1.5197    1.8935    1.9868 C   0  0  0  0  0  0  0  0  0  3  0  0
   -1.3664    1.2426    2.8376 H   0  0  0  0  0  0  0  0  0 34  0  0
   -0.5900    1.8657    0.9501 C   0  0  0  0  0  0  0  0  0  4  0  0
    0.5547    0.9394    1.0592 C   0  0  0  0  0  0  0  0  0  9  0  0
    0.4869   -0.1436    1.6150 O   0  0  0  0  0  0  0  0  0 10  0  0
    1.7182    1.3877    0.5143 N   0  0  0  0  0  0  0  0  0 11  0  0
    1.7137    2.2460   -0.0160 H   0  0  0  0  0  0  0  0  0 12  0  0
    2.9181    0.5996    0.5029 C   0  0  0  0  0  0  0  0  0 13  0  0
    2.9937    0.0780    1.4566 H   0  0  0  0  0  0  0  0  0 14  0  0
    3.7834    1.2518    0.3712 H   0  0  0  0  0  0  0  0  0 15  0  0
    2.8885   -0.4429   -0.6380 C   0  0  0  0  0  0  0  0  0 16  0  0
    3.5702   -0.3238   -1.6435 O   0  0  0  0  0  0  0  0  0 17  0  0
    2.0309   -1.4320   -0.4029 N   0  0  0  0  0  0  0  0  0 18  0  0
    1.4561   -1.3772    0.4470 H   0  0  0  0  0  0  0  0  0 19  0  0
    1.7080   -2.4688   -1.3503 C   0  0  2  0  0  0  0  0  0 20  0  0
    2.3587   -2.3119   -2.2113 H   0  0  0  0  0  0  0  0  0 21  0  0
    0.2232   -2.4209   -1.7307 C   0  0  0  0  0  0  0  0  0 22  0  0
    0.0880   -2.7770   -2.7519 H   0  0  0  0  0  0  0  0  0 32  0  0
   -0.1631   -1.4087   -1.6606 H   0  0  0  0  0  0  0  0  0 33  0  0
   -0.4529   -3.3857   -0.7524 C   0  0  0  0  0  0  0  0  0 23  0  0
   -0.5283   -2.9273    0.2294 H   0  0  0  0  0  0  0  0  0 24  0  0
   -1.4464   -3.7037   -1.0804 H   0  0  0  0  0  0  0  0  0 31  0  0
    0.5501   -4.5441   -0.7213 C   0  0  0  0  0  0  0  0  0 25  0  0
    0.4073   -5.1851    0.1537 H   0  0  0  0  0  0  0  0  0 26  0  0
    0.4303   -5.1688   -1.6067 H   0  0  0  0  0  0  0  0  0 27  0  0
    1.9144   -3.8666   -0.7119 C   0  0  0  0  0  0  0  0  0 28  0  0
    2.2869   -3.7423    0.3076 H   0  0  0  0  0  0  0  0  0 29  0  0
    2.6558   -4.4477   -1.2598 H   0  0  0  0  0  0  0  0  0 30  0  0
   -0.8137    2.6815   -0.1592 C   0  0  0  0  0  0  0  0  0  5  0  0
   -0.1342    2.6487   -1.0026 H   0  0  0  0  0  0  0  0  0  8  0  0
   -1.9192    3.5004   -0.2140 C   0  0  0  0  0  0  0  0  0  6  0  0
   -2.0784    4.1292   -1.0874 H   0  0  0  0  0  0  0  0  0  7  0  0
   -4.3725    4.5629   -0.2533 H   0  0  0  0  0  0  0  0  0 36  0  0
   -3.7284    5.4608    1.1292 H   0  0  0  0  0  0  0  0  0 37  0  0
   -4.8206    4.1021    1.4073 H   0  0  0  0  0  0  0  0  0 38  0  0
  1  2  1  0
  2  3  4  0
  3  4  1  0
  3  5  4  0
  5  6  1  0
  5  7  4  0
  7  8  1  0
  8  9  2  0
  8 10  1  0
 10 11  1  0
 10 12  1  0
 12 13  1  0
 12 14  1  0
 12 15  1  0
 15 16  2  0
 15 17  1  0
 17 18  1  0
 17 19  1  0
 19 20  1  6
 19 21  1  0
 21 22  1  0
 21 23  1  0
 21 24  1  0
 24 25  1  0
 24 26  1  0
 24 27  1  0
 27 28  1  0
 27 29  1  0
 27 30  1  0
 30 31  1  0
 30 32  1  0
  7 33  4  0
 33 34  1  0
 33 35  4  0
 35 36  1  0
  1 37  1  0
  1 38  1  0
  1 39  1  0
 35  2  4  0
 30 19  1  0
M  END
>  <sample_id>  (336)
train::Cc1ccc(C(=O)NCC(=O)NC2CCCC2)cc1__gen0002

>  <partition>  (336)
BAT_EXTERNAL_CONFIRM

>  <method>  (336)
BA_seed193

>  <candidate>  (336)
primary

$$$$
train::CCOC(=O)c1c(-c2ccccc2)c(C(C)=O)c(=O)n(C)c1C__gen0000
     RDKit          3D

 42 43  0  0  0  0  0  0  0  0999 V2000
   -4.1001   -0.3729   -0.8761 C   0  0  0  0  0  0  0  0  0  0  0  0
   -2.9746   -1.2036   -1.4698 C   0  0  0  0  0  0  0  0  0  1  0  0
   -2.9579   -2.2140   -1.0503 H   0  0  0  0  0  0  0  0  0  2  0  0
   -3.0643   -1.2864   -2.5600 H   0  0  0  0  0  0  0  0  0  3  0  0
   -1.7363   -0.5545   -1.1564 O   0  0  0  0  0  0  0  0  0  4  0  0
   -0.6198   -1.2080   -1.4730 C   0  0  0  0  0  0  0  0  0  5  0  0
   -0.6180   -2.2604   -2.0610 O   0  0  0  0  0  0  0  0  0  6  0  0
    0.5807   -0.4798   -0.9911 C   0  0  0  0  0  0  0  0  0  7  0  0
    1.6608   -0.2260   -1.8304 C   0  0  0  0  0  0  0  0  0  8  0  0
    1.7022   -0.7184   -3.2363 C   0  0  0  0  0  0  0  0  0 35  0  0
    0.7070   -1.0189   -3.5592 H   0  0  0  0  0  0  0  0  0 36  0  0
    2.3407   -1.5942   -3.2930 H   0  0  0  0  0  0  0  0  0 37  0  0
    2.1106    0.0382   -3.9089 H   0  0  0  0  0  0  0  0  0 38  0  0
    2.7079    0.5090   -1.3880 N   0  0  0  0  0  0  0  0  0  9  0  0
    3.8515    0.7388   -2.2236 C   0  0  0  0  0  0  0  0  0 31  0  0
    4.3135   -0.2022   -2.5304 H   0  0  0  0  0  0  0  0  0 32  0  0
    4.5706    1.3292   -1.6587 H   0  0  0  0  0  0  0  0  0 33  0  0
    3.5709    1.3169   -3.1093 H   0  0  0  0  0  0  0  0  0 34  0  0
    2.7884    1.0690   -0.0766 C   0  0  0  0  0  0  0  0  0 10  0  0
    3.7484    1.7398    0.2225 O   0  0  0  0  0  0  0  0  0 11  0  0
    1.6616    0.7766    0.7822 C   0  0  0  0  0  0  0  0  0 12  0  0
    1.7387    1.1985    2.1813 C   0  0  0  0  0  0  0  0  0 25  0  0
    1.5463    0.4274    3.1045 O   0  0  0  0  0  0  0  0  0 26  0  0
    2.0487    2.6625    2.3923 C   0  0  0  0  0  0  0  0  0 27  0  0
    3.1135    2.8281    2.2352 H   0  0  0  0  0  0  0  0  0 28  0  0
    1.7638    2.9557    3.4026 H   0  0  0  0  0  0  0  0  0 29  0  0
    1.5021    3.2570    1.6598 H   0  0  0  0  0  0  0  0  0 30  0  0
    0.5884    0.0170    0.3246 C   0  0  0  0  0  0  0  0  0 13  0  0
   -0.5278   -0.2927    1.2429 C   0  0  0  0  0  0  0  0  0 14  0  0
   -1.2655    0.7307    1.8224 C   0  0  0  0  0  0  0  0  0 15  0  0
   -0.9897    1.7565    1.6301 H   0  0  0  0  0  0  0  0  0 24  0  0
   -2.3214    0.4354    2.6548 C   0  0  0  0  0  0  0  0  0 16  0  0
   -2.8921    1.2385    3.1092 H   0  0  0  0  0  0  0  0  0 23  0  0
   -2.6650   -0.8822    2.9042 C   0  0  0  0  0  0  0  0  0 17  0  0
   -3.5107   -1.0999    3.5489 H   0  0  0  0  0  0  0  0  0 22  0  0
   -1.9241   -1.9038    2.3344 C   0  0  0  0  0  0  0  0  0 18  0  0
   -2.1866   -2.9353    2.5457 H   0  0  0  0  0  0  0  0  0 21  0  0
   -0.8713   -1.6196    1.4957 C   0  0  0  0  0  0  0  0  0 19  0  0
   -0.2791   -2.4120    1.0611 H   0  0  0  0  0  0  0  0  0 20  0  0
   -3.9667   -0.3039    0.2015 H   0  0  0  0  0  0  0  0  0 39  0  0
   -5.0483   -0.8572   -1.0996 H   0  0  0  0  0  0  0  0  0 40  0  0
   -4.0971    0.6210   -1.3039 H   0  0  0  0  0  0  0  0  0 41  0  0
  1  2  1  0
  2  3  1  0
  2  4  1  0
  2  5  1  0
  5  6  1  0
  6  7  2  0
  6  8  1  0
  8  9  4  0
  9 10  1  0
 10 11  1  0
 10 12  1  0
 10 13  1  0
  9 14  4  0
 14 15  1  0
 15 16  1  0
 15 17  1  0
 15 18  1  0
 14 19  4  0
 19 20  2  0
 19 21  4  0
 21 22  1  0
 22 23  2  0
 22 24  1  0
 24 25  1  0
 24 26  1  0
 24 27  1  0
 21 28  4  0
 28 29  1  0
 29 30  4  0
 30 31  1  0
 30 32  4  0
 32 33  1  0
 32 34  4  0
 34 35  1  0
 34 36  4  0
 36 37  1  0
 36 38  4  0
 38 39  1  0
  1 40  1  0
  1 41  1  0
  1 42  1  0
 28  8  4  0
 38 29  4  0
M  END
>  <sample_id>  (337)
train::CCOC(=O)c1c(-c2ccccc2)c(C(C)=O)c(=O)n(C)c1C__gen0000

>  <partition>  (337)
BAT_EXTERNAL_CONFIRM

>  <method>  (337)
BA_seed193

>  <candidate>  (337)
primary

$$$$
train::CCOC(=O)c1c(-c2ccccc2)c(C(C)=O)c(=O)n(C)c1C__gen0001
     RDKit          3D

 42 43  0  0  0  0  0  0  0  0999 V2000
    0.5440    0.4796    4.1716 C   0  0  0  0  0  0  0  0  0  0  0  0
    1.4971   -0.1426    3.1687 C   0  0  0  0  0  0  0  0  0  1  0  0
    2.3372    0.5301    2.9569 H   0  0  0  0  0  0  0  0  0  2  0  0
    1.8984   -1.0974    3.5247 H   0  0  0  0  0  0  0  0  0  3  0  0
    0.7812   -0.3691    1.9590 O   0  0  0  0  0  0  0  0  0  4  0  0
    1.4177   -0.9759    0.9753 C   0  0  0  0  0  0  0  0  0  5  0  0
    2.5395   -1.4031    1.0717 O   0  0  0  0  0  0  0  0  0  6  0  0
    0.5703   -1.0521   -0.2657 C   0  0  0  0  0  0  0  0  0  7  0  0
    0.3967   -2.2342   -0.9673 C   0  0  0  0  0  0  0  0  0  8  0  0
    1.0620   -3.5060   -0.6076 C   0  0  0  0  0  0  0  0  0 35  0  0
    1.7066   -3.3510    0.2599 H   0  0  0  0  0  0  0  0  0 36  0  0
    1.7026   -3.8324   -1.4299 H   0  0  0  0  0  0  0  0  0 37  0  0
    0.3292   -4.2861   -0.4022 H   0  0  0  0  0  0  0  0  0 38  0  0
   -0.4236   -2.2486   -2.0621 N   0  0  0  0  0  0  0  0  0  9  0  0
   -0.5821   -3.4463   -2.8207 C   0  0  0  0  0  0  0  0  0 31  0  0
   -1.0222   -4.2385   -2.2040 H   0  0  0  0  0  0  0  0  0 32  0  0
    0.3829   -3.7914   -3.2343 H   0  0  0  0  0  0  0  0  0 33  0  0
   -1.2554   -3.2406   -3.6530 H   0  0  0  0  0  0  0  0  0 34  0  0
   -1.1331   -1.1098   -2.5106 C   0  0  0  0  0  0  0  0  0 10  0  0
   -1.8552   -1.2449   -3.4967 O   0  0  0  0  0  0  0  0  0 11  0  0
   -0.9538    0.0983   -1.7476 C   0  0  0  0  0  0  0  0  0 12  0  0
   -1.5762    1.3243   -2.2743 C   0  0  0  0  0  0  0  0  0 25  0  0
   -0.9489    2.3404   -2.4684 O   0  0  0  0  0  0  0  0  0 26  0  0
   -3.0694    1.2130   -2.5326 C   0  0  0  0  0  0  0  0  0 27  0  0
   -3.2264    0.4498   -3.2909 H   0  0  0  0  0  0  0  0  0 28  0  0
   -3.5630    0.8959   -1.6166 H   0  0  0  0  0  0  0  0  0 29  0  0
   -3.4698    2.1612   -2.8731 H   0  0  0  0  0  0  0  0  0 30  0  0
   -0.0814    0.1231   -0.6715 C   0  0  0  0  0  0  0  0  0 13  0  0
    0.1735    1.3771    0.0523 C   0  0  0  0  0  0  0  0  0 14  0  0
   -0.8771    2.0607    0.6684 C   0  0  0  0  0  0  0  0  0 15  0  0
   -1.8806    1.6845    0.5757 H   0  0  0  0  0  0  0  0  0 24  0  0
   -0.6202    3.2150    1.3896 C   0  0  0  0  0  0  0  0  0 16  0  0
   -1.4364    3.7316    1.8761 H   0  0  0  0  0  0  0  0  0 23  0  0
    0.6680    3.7000    1.5063 C   0  0  0  0  0  0  0  0  0 17  0  0
    0.8657    4.5987    2.0772 H   0  0  0  0  0  0  0  0  0 22  0  0
    1.7080    3.0304    0.8735 C   0  0  0  0  0  0  0  0  0 18  0  0
    2.7177    3.4222    0.9456 H   0  0  0  0  0  0  0  0  0 21  0  0
    1.4617    1.8804    0.1682 C   0  0  0  0  0  0  0  0  0 19  0  0
    2.2646    1.3645   -0.3446 H   0  0  0  0  0  0  0  0  0 20  0  0
    0.1709    1.4227    3.7839 H   0  0  0  0  0  0  0  0  0 39  0  0
   -0.2901   -0.1856    4.3566 H   0  0  0  0  0  0  0  0  0 40  0  0
    1.0696    0.6520    5.1125 H   0  0  0  0  0  0  0  0  0 41  0  0
  1  2  1  0
  2  3  1  0
  2  4  1  0
  2  5  1  0
  5  6  1  0
  6  7  2  0
  6  8  1  0
  8  9  4  0
  9 10  1  0
 10 11  1  0
 10 12  1  0
 10 13  1  0
  9 14  4  0
 14 15  1  0
 15 16  1  0
 15 17  1  0
 15 18  1  0
 14 19  4  0
 19 20  2  0
 19 21  4  0
 21 22  1  0
 22 23  2  0
 22 24  1  0
 24 25  1  0
 24 26  1  0
 24 27  1  0
 21 28  4  0
 28 29  1  0
 29 30  4  0
 30 31  1  0
 30 32  4  0
 32 33  1  0
 32 34  4  0
 34 35  1  0
 34 36  4  0
 36 37  1  0
 36 38  4  0
 38 39  1  0
  1 40  1  0
  1 41  1  0
  1 42  1  0
 28  8  4  0
 38 29  4  0
M  END
>  <sample_id>  (338)
train::CCOC(=O)c1c(-c2ccccc2)c(C(C)=O)c(=O)n(C)c1C__gen0001

>  <partition>  (338)
BAT_EXTERNAL_CONFIRM

>  <method>  (338)
BA_seed193

>  <candidate>  (338)
primary

$$$$
train::CCOC(=O)c1c(-c2ccccc2)c(C(C)=O)c(=O)n(C)c1C__gen0002
     RDKit          3D

 42 43  0  0  0  0  0  0  0  0999 V2000
    4.4158   -0.8246    0.2177 C   0  0  0  0  0  0  0  0  0  0  0  0
    3.4195   -0.5036   -0.8975 C   0  0  0  0  0  0  0  0  0  1  0  0
    3.6640    0.4550   -1.3775 H   0  0  0  0  0  0  0  0  0  2  0  0
    3.3940   -1.3035   -1.6437 H   0  0  0  0  0  0  0  0  0  3  0  0
    2.0993   -0.4157   -0.3666 O   0  0  0  0  0  0  0  0  0  4  0  0
    1.6892    0.7913    0.0569 C   0  0  0  0  0  0  0  0  0  5  0  0
    2.3755    1.7974   -0.0529 O   0  0  0  0  0  0  0  0  0  6  0  0
    0.3556    0.7445    0.6599 C   0  0  0  0  0  0  0  0  0  7  0  0
    0.1344    1.1840    1.9479 C   0  0  0  0  0  0  0  0  0  8  0  0
    1.2174    1.8327    2.7645 C   0  0  0  0  0  0  0  0  0 35  0  0
    1.4580    1.1999    3.6228 H   0  0  0  0  0  0  0  0  0 36  0  0
    0.9010    2.8002    3.1254 H   0  0  0  0  0  0  0  0  0 37  0  0
    2.1078    1.9639    2.1620 H   0  0  0  0  0  0  0  0  0 38  0  0
   -1.0671    1.0597    2.5386 N   0  0  0  0  0  0  0  0  0  9  0  0
   -1.3044    1.5371    3.8728 C   0  0  0  0  0  0  0  0  0 31  0  0
   -1.1843    2.6297    3.9392 H   0  0  0  0  0  0  0  0  0 32  0  0
   -2.3396    1.2977    4.1451 H   0  0  0  0  0  0  0  0  0 33  0  0
   -0.6385    1.0519    4.5800 H   0  0  0  0  0  0  0  0  0 34  0  0
   -2.2217    0.5315    1.8646 C   0  0  0  0  0  0  0  0  0 10  0  0
   -3.2778    0.4448    2.4542 O   0  0  0  0  0  0  0  0  0 11  0  0
   -1.9777    0.1397    0.5046 C   0  0  0  0  0  0  0  0  0 12  0  0
   -3.1721   -0.3109   -0.2974 C   0  0  0  0  0  0  0  0  0 25  0  0
   -3.8868    0.4809   -0.8757 O   0  0  0  0  0  0  0  0  0 26  0  0
   -3.3917   -1.7911   -0.2982 C   0  0  0  0  0  0  0  0  0 27  0  0
   -4.3155   -2.0186   -0.8381 H   0  0  0  0  0  0  0  0  0 28  0  0
   -3.4825   -2.1469    0.7382 H   0  0  0  0  0  0  0  0  0 29  0  0
   -2.5564   -2.2952   -0.7701 H   0  0  0  0  0  0  0  0  0 30  0  0
   -0.7464    0.1962   -0.0682 C   0  0  0  0  0  0  0  0  0 13  0  0
   -0.6069   -0.2314   -1.4739 C   0  0  0  0  0  0  0  0  0 14  0  0
   -0.0963   -1.4871   -1.7915 C   0  0  0  0  0  0  0  0  0 15  0  0
    0.2120   -2.1642   -1.0056 H   0  0  0  0  0  0  0  0  0 24  0  0
   -0.0303   -1.9028   -3.1203 C   0  0  0  0  0  0  0  0  0 16  0  0
    0.3490   -2.8748   -3.3490 H   0  0  0  0  0  0  0  0  0 23  0  0
   -0.4419   -1.0352   -4.1200 C   0  0  0  0  0  0  0  0  0 17  0  0
   -0.3761   -1.3688   -5.1577 H   0  0  0  0  0  0  0  0  0 22  0  0
   -0.9402    0.2012   -3.8126 C   0  0  0  0  0  0  0  0  0 18  0  0
   -1.2913    0.8613   -4.5958 H   0  0  0  0  0  0  0  0  0 21  0  0
   -1.0362    0.6014   -2.4801 C   0  0  0  0  0  0  0  0  0 19  0  0
   -1.4364    1.5702   -2.2363 H   0  0  0  0  0  0  0  0  0 20  0  0
    5.4219   -0.9119   -0.2240 H   0  0  0  0  0  0  0  0  0 39  0  0
    4.4369   -0.0325    0.9534 H   0  0  0  0  0  0  0  0  0 40  0  0
    4.1673   -1.7537    0.7048 H   0  0  0  0  0  0  0  0  0 41  0  0
  1  2  1  0
  2  3  1  0
  2  4  1  0
  2  5  1  0
  5  6  1  0
  6  7  2  0
  6  8  1  0
  8  9  4  0
  9 10  1  0
 10 11  1  0
 10 12  1  0
 10 13  1  0
  9 14  4  0
 14 15  1  0
 15 16  1  0
 15 17  1  0
 15 18  1  0
 14 19  4  0
 19 20  2  0
 19 21  4  0
 21 22  1  0
 22 23  2  0
 22 24  1  0
 24 25  1  0
 24 26  1  0
 24 27  1  0
 21 28  4  0
 28 29  1  0
 29 30  4  0
 30 31  1  0
 30 32  4  0
 32 33  1  0
 32 34  4  0
 34 35  1  0
 34 36  4  0
 36 37  1  0
 36 38  4  0
 38 39  1  0
  1 40  1  0
  1 41  1  0
  1 42  1  0
 28  8  4  0
 38 29  4  0
M  END
>  <sample_id>  (339)
train::CCOC(=O)c1c(-c2ccccc2)c(C(C)=O)c(=O)n(C)c1C__gen0002

>  <partition>  (339)
BAT_EXTERNAL_CONFIRM

>  <method>  (339)
BA_seed193

>  <candidate>  (339)
primary

$$$$
train::CN(C)c1ccc(C(C(=O)NCc2ccccc2)N(Cc2cccnc2)C(=O)c2snc(C(N)=O)c2N)cc1__gen0000
     RDKit          3D

 68 71  0  0  0  0  0  0  0  0999 V2000
    3.4826    5.8787   -0.8917 C   0  0  0  0  0  0  0  0  0  0  0  0
    3.9638    4.5216   -1.0673 N   0  0  0  0  0  0  0  0  0  1  0  0
    3.1131    3.4611   -1.0311 C   0  0  0  0  0  0  0  0  0  2  0  0
    1.7249    3.6519   -0.9975 C   0  0  0  0  0  0  0  0  0  3  0  0
    1.3037    4.6434   -1.0573 H   0  0  0  0  0  0  0  0  0 60  0  0
    0.8591    2.5849   -0.9214 C   0  0  0  0  0  0  0  0  0  4  0  0
   -0.2066    2.7653   -0.9321 H   0  0  0  0  0  0  0  0  0 59  0  0
    1.3426    1.2840   -0.8315 C   0  0  0  0  0  0  0  0  0  5  0  0
    0.3444    0.1317   -0.6883 C   0  0  2  0  0  0  0  0  0 10  0  0
   -0.3408    0.1425    0.5855 N   0  0  0  0  0  0  0  0  0 11  0  0
   -1.4409   -0.5981    0.8957 C   0  0  0  0  0  0  0  0  0 12  0  0
   -1.8741   -0.6379    2.0477 O   0  0  0  0  0  0  0  0  0 13  0  0
   -2.1495   -1.3793   -0.1173 C   0  0  0  0  0  0  0  0  0 14  0  0
   -3.2968   -2.1149    0.1495 C   0  0  0  0  0  0  0  0  0 15  0  0
   -3.9113   -2.2644    1.3411 N   0  0  0  0  0  0  0  0  0 16  0  0
   -3.5514   -1.7331    2.1183 H   0  0  0  0  0  0  0  0  0 17  0  0
   -4.7693   -2.7863    1.3470 H   0  0  0  0  0  0  0  0  0 18  0  0
   -3.7761   -2.7599   -1.0331 C   0  0  0  0  0  0  0  0  0 19  0  0
   -4.9367   -3.6491   -1.0792 C   0  0  0  0  0  0  0  0  0 22  0  0
   -5.6269   -3.8877   -0.1058 O   0  0  0  0  0  0  0  0  0 23  0  0
   -5.1817   -4.1645   -2.2990 N   0  0  0  0  0  0  0  0  0 24  0  0
   -4.5452   -3.9753   -3.0603 H   0  0  0  0  0  0  0  0  0 25  0  0
   -5.9427   -4.8174   -2.4128 H   0  0  0  0  0  0  0  0  0 26  0  0
   -3.0542   -2.5409   -2.1210 N   0  0  0  0  0  0  0  0  0 20  0  0
   -1.7905   -1.5747   -1.8164 S   0  0  0  0  0  0  0  0  0 21  0  0
    0.3131    0.7643    1.7175 C   0  0  0  0  0  0  0  0  0 27  0  0
   -0.0033    2.2368    1.9207 C   0  0  0  0  0  0  0  0  0 28  0  0
    0.5110    2.9004    3.0185 C   0  0  0  0  0  0  0  0  0 29  0  0
    1.1308    2.3668    3.7187 H   0  0  0  0  0  0  0  0  0 37  0  0
    0.2333    4.2433    3.1939 C   0  0  0  0  0  0  0  0  0 30  0  0
    0.6385    4.7885    4.0295 H   0  0  0  0  0  0  0  0  0 36  0  0
   -0.5853    4.8713    2.2719 C   0  0  0  0  0  0  0  0  0 31  0  0
   -0.8199    5.9146    2.3639 H   0  0  0  0  0  0  0  0  0 35  0  0
   -1.1101    4.2352    1.2316 N   0  0  0  0  0  0  0  0  0 32  0  0
   -0.8362    2.9573    1.0709 C   0  0  0  0  0  0  0  0  0 33  0  0
   -1.2971    2.4935    0.2143 H   0  0  0  0  0  0  0  0  0 34  0  0
    1.4003    0.6524    1.5837 H   0  0  0  0  0  0  0  0  0 38  0  0
    0.0180    0.2160    2.6134 H   0  0  0  0  0  0  0  0  0 39  0  0
    1.0070   -1.2197   -0.9837 C   0  0  0  0  0  0  0  0  0 40  0  0
    1.3197   -1.5440   -2.1048 O   0  0  0  0  0  0  0  0  0 41  0  0
    1.1870   -2.0335    0.0993 N   0  0  0  0  0  0  0  0  0 42  0  0
    0.7949   -1.7366    0.9849 H   0  0  0  0  0  0  0  0  0 43  0  0
    1.4150   -3.4361   -0.0306 C   0  0  0  0  0  0  0  0  0 44  0  0
    0.1005   -4.1617    0.0351 C   0  0  0  0  0  0  0  0  0 45  0  0
   -0.6117   -4.1736    1.2392 C   0  0  0  0  0  0  0  0  0 46  0  0
   -0.1749   -3.7319    2.1239 H   0  0  0  0  0  0  0  0  0 55  0  0
   -1.8715   -4.7398    1.3024 C   0  0  0  0  0  0  0  0  0 47  0  0
   -2.4091   -4.7276    2.2355 H   0  0  0  0  0  0  0  0  0 54  0  0
   -2.4410   -5.2858    0.1765 C   0  0  0  0  0  0  0  0  0 48  0  0
   -3.4190   -5.7339    0.2384 H   0  0  0  0  0  0  0  0  0 53  0  0
   -1.7505   -5.2817   -1.0246 C   0  0  0  0  0  0  0  0  0 49  0  0
   -2.2097   -5.7202   -1.8971 H   0  0  0  0  0  0  0  0  0 52  0  0
   -0.4864   -4.6991   -1.0949 C   0  0  0  0  0  0  0  0  0 50  0  0
    0.0314   -4.6707   -2.0413 H   0  0  0  0  0  0  0  0  0 51  0  0
    2.0862   -3.7594    0.7606 H   0  0  0  0  0  0  0  0  0 56  0  0
    1.8833   -3.6014   -1.0109 H   0  0  0  0  0  0  0  0  0 57  0  0
   -0.3990    0.2551   -1.4656 H   0  0  0  0  0  0  0  0  0 58  0  0
    2.7137    1.0788   -0.9102 C   0  0  0  0  0  0  0  0  0  6  0  0
    3.1193    0.0756   -0.9110 H   0  0  0  0  0  0  0  0  0  9  0  0
    3.5791    2.1464   -0.9978 C   0  0  0  0  0  0  0  0  0  7  0  0
    4.6328    1.9403   -1.0370 H   0  0  0  0  0  0  0  0  0  8  0  0
    5.3447    4.3413   -1.4497 C   0  0  0  0  0  0  0  0  0 61  0  0
    5.9252    3.8633   -0.6639 H   0  0  0  0  0  0  0  0  0 62  0  0
    5.7954    5.3123   -1.6714 H   0  0  0  0  0  0  0  0  0 63  0  0
    5.4138    3.7170   -2.3402 H   0  0  0  0  0  0  0  0  0 64  0  0
    2.8794    6.2072   -1.7542 H   0  0  0  0  0  0  0  0  0 65  0  0
    4.3314    6.5570   -0.7882 H   0  0  0  0  0  0  0  0  0 66  0  0
    2.8804    5.9404    0.0111 H   0  0  0  0  0  0  0  0  0 67  0  0
  1  2  1  0
  2  3  1  0
  3  4  4  0
  4  5  1  0
  4  6  4  0
  6  7  1  0
  6  8  4  0
  8  9  1  0
  9 10  1  0
 10 11  1  0
 11 12  2  0
 11 13  1  0
 13 14  2  0
 14 15  1  0
 15 16  1  0
 15 17  1  0
 14 18  1  0
 18 19  2  0
 19 20  1  0
 19 21  1  0
 21 22  1  0
 21 23  1  0
 18 24  1  0
 24 25  2  0
 10 26  1  0
 26 27  1  0
 27 28  4  0
 28 29  1  0
 28 30  4  0
 30 31  1  0
 30 32  4  0
 32 33  1  0
 32 34  4  0
 34 35  4  0
 35 36  1  0
 26 37  1  0
 26 38  1  0
  9 39  1  0
 39 40  2  0
 39 41  1  0
 41 42  1  0
 41 43  1  0
 43 44  1  0
 44 45  4  0
 45 46  1  0
 45 47  4  0
 47 48  1  0
 47 49  4  0
 49 50  1  0
 49 51  4  0
 51 52  1  0
 51 53  4  0
 53 54  1  0
 43 55  1  0
 43 56  1  0
  9 57  1  6
  8 58  4  0
 58 59  1  0
 58 60  4  0
 60 61  1  0
  2 62  1  0
 62 63  1  0
 62 64  1  0
 62 65  1  0
  1 66  1  0
  1 67  1  0
  1 68  1  0
 60  3  4  0
 25 13  1  0
 35 27  4  0
 53 44  4  0
M  CHG  2  20  -1  25   1
M  END
>  <sample_id>  (340)
train::CN(C)c1ccc(C(C(=O)NCc2ccccc2)N(Cc2cccnc2)C(=O)c2snc(C(N)=O)c2N)cc1__gen0000

>  <partition>  (340)
BAT_EXTERNAL_CONFIRM

>  <method>  (340)
BA_seed193

>  <candidate>  (340)
primary

$$$$
train::CN(C)c1ccc(C(C(=O)NCc2ccccc2)N(Cc2cccnc2)C(=O)c2snc(C(N)=O)c2N)cc1__gen0001
     RDKit          3D

 68 71  0  0  0  0  0  0  0  0999 V2000
    5.2645   -1.6454   -2.4047 C   0  0  0  0  0  0  0  0  0  0  0  0
    4.7486   -1.5252   -1.0677 N   0  0  0  0  0  0  0  0  0  1  0  0
    3.4342   -1.2072   -0.8652 C   0  0  0  0  0  0  0  0  0  2  0  0
    2.6608   -0.6371   -1.8901 C   0  0  0  0  0  0  0  0  0  3  0  0
    3.0811   -0.4753   -2.8640 H   0  0  0  0  0  0  0  0  0 60  0  0
    1.3548   -0.2639   -1.6831 C   0  0  0  0  0  0  0  0  0  4  0  0
    0.7891    0.1878   -2.4791 H   0  0  0  0  0  0  0  0  0 59  0  0
    0.7480   -0.4468   -0.4379 C   0  0  0  0  0  0  0  0  0  5  0  0
   -0.6731    0.0261   -0.2051 C   0  0  2  0  0  0  0  0  0 10  0  0
   -0.8004    1.4389   -0.4379 N   0  0  0  0  0  0  0  0  0 11  0  0
   -1.8176    2.0913   -1.0288 C   0  0  0  0  0  0  0  0  0 12  0  0
   -1.9183    3.3089   -0.9537 O   0  0  0  0  0  0  0  0  0 13  0  0
   -2.8363    1.3822   -1.7948 C   0  0  0  0  0  0  0  0  0 14  0  0
   -4.0498    1.9644   -2.1365 C   0  0  0  0  0  0  0  0  0 15  0  0
   -4.5217    3.1393   -1.7446 N   0  0  0  0  0  0  0  0  0 16  0  0
   -3.8860    3.7867   -1.2645 H   0  0  0  0  0  0  0  0  0 17  0  0
   -5.4202    3.4390   -2.1063 H   0  0  0  0  0  0  0  0  0 18  0  0
   -4.7996    1.0634   -2.9786 C   0  0  0  0  0  0  0  0  0 19  0  0
   -6.1335    1.3820   -3.5237 C   0  0  0  0  0  0  0  0  0 22  0  0
   -6.7122    2.4417   -3.2905 O   0  0  0  0  0  0  0  0  0 23  0  0
   -6.6604    0.4159   -4.2861 N   0  0  0  0  0  0  0  0  0 24  0  0
   -6.1276   -0.4236   -4.4711 H   0  0  0  0  0  0  0  0  0 25  0  0
   -7.5603    0.5367   -4.7160 H   0  0  0  0  0  0  0  0  0 26  0  0
   -4.2014   -0.0805   -3.2644 N   0  0  0  0  0  0  0  0  0 20  0  0
   -2.7482   -0.1964   -2.5527 S   0  0  0  0  0  0  0  0  0 21  0  0
    0.2539    2.2856    0.1594 C   0  0  0  0  0  0  0  0  0 27  0  0
   -0.2881    3.4581    0.9161 C   0  0  0  0  0  0  0  0  0 28  0  0
    0.1989    4.7476    0.6988 C   0  0  0  0  0  0  0  0  0 29  0  0
    0.9569    4.9135   -0.0553 H   0  0  0  0  0  0  0  0  0 37  0  0
   -0.3164    5.7996    1.4298 C   0  0  0  0  0  0  0  0  0 30  0  0
    0.0318    6.8060    1.2708 H   0  0  0  0  0  0  0  0  0 36  0  0
   -1.3093    5.5301    2.3626 C   0  0  0  0  0  0  0  0  0 31  0  0
   -1.7491    6.3128    2.9600 H   0  0  0  0  0  0  0  0  0 35  0  0
   -1.7862    4.3138    2.5821 N   0  0  0  0  0  0  0  0  0 32  0  0
   -1.2939    3.3180    1.8577 C   0  0  0  0  0  0  0  0  0 33  0  0
   -1.7305    2.3432    2.0690 H   0  0  0  0  0  0  0  0  0 34  0  0
    0.8566    1.6669    0.8218 H   0  0  0  0  0  0  0  0  0 38  0  0
    0.9068    2.6580   -0.6517 H   0  0  0  0  0  0  0  0  0 39  0  0
   -1.0772   -0.4017    1.2141 C   0  0  0  0  0  0  0  0  0 40  0  0
   -1.1833    0.3812    2.1542 O   0  0  0  0  0  0  0  0  0 41  0  0
   -1.2766   -1.7169    1.3311 N   0  0  0  0  0  0  0  0  0 42  0  0
   -1.2189   -2.2683    0.4864 H   0  0  0  0  0  0  0  0  0 43  0  0
   -1.2189   -2.4786    2.5883 C   0  0  0  0  0  0  0  0  0 44  0  0
    0.0858   -3.2183    2.6567 C   0  0  0  0  0  0  0  0  0 45  0  0
    0.2169   -4.4635    2.0564 C   0  0  0  0  0  0  0  0  0 46  0  0
   -0.6571   -4.9382    1.6195 H   0  0  0  0  0  0  0  0  0 55  0  0
    1.4617   -5.0885    2.0061 C   0  0  0  0  0  0  0  0  0 47  0  0
    1.5248   -6.0583    1.5432 H   0  0  0  0  0  0  0  0  0 54  0  0
    2.5656   -4.4979    2.5765 C   0  0  0  0  0  0  0  0  0 48  0  0
    3.5360   -4.9912    2.5430 H   0  0  0  0  0  0  0  0  0 53  0  0
    2.4474   -3.2571    3.1708 C   0  0  0  0  0  0  0  0  0 49  0  0
    3.2983   -2.7642    3.5862 H   0  0  0  0  0  0  0  0  0 52  0  0
    1.2170   -2.6305    3.1915 C   0  0  0  0  0  0  0  0  0 50  0  0
    1.1338   -1.6475    3.6421 H   0  0  0  0  0  0  0  0  0 51  0  0
   -2.1001   -3.1414    2.6172 H   0  0  0  0  0  0  0  0  0 56  0  0
   -1.3415   -1.7400    3.3895 H   0  0  0  0  0  0  0  0  0 57  0  0
   -1.3577   -0.5117   -0.8779 H   0  0  0  0  0  0  0  0  0 58  0  0
    1.4903   -1.0347    0.5810 C   0  0  0  0  0  0  0  0  0  6  0  0
    1.0463   -1.1945    1.5487 H   0  0  0  0  0  0  0  0  0  9  0  0
    2.8090   -1.3838    0.3818 C   0  0  0  0  0  0  0  0  0  7  0  0
    3.3598   -1.8071    1.2099 H   0  0  0  0  0  0  0  0  0  8  0  0
    5.6008   -1.9007    0.0491 C   0  0  0  0  0  0  0  0  0 61  0  0
    5.4068   -2.9446    0.3500 H   0  0  0  0  0  0  0  0  0 62  0  0
    5.4157   -1.2451    0.9135 H   0  0  0  0  0  0  0  0  0 63  0  0
    6.6355   -1.8194   -0.2489 H   0  0  0  0  0  0  0  0  0 64  0  0
    5.3255   -0.6825   -2.9023 H   0  0  0  0  0  0  0  0  0 65  0  0
    6.2637   -2.0762   -2.3476 H   0  0  0  0  0  0  0  0  0 66  0  0
    4.6448   -2.3350   -3.0040 H   0  0  0  0  0  0  0  0  0 67  0  0
  1  2  1  0
  2  3  1  0
  3  4  4  0
  4  5  1  0
  4  6  4  0
  6  7  1  0
  6  8  4  0
  8  9  1  0
  9 10  1  0
 10 11  1  0
 11 12  2  0
 11 13  1  0
 13 14  2  0
 14 15  1  0
 15 16  1  0
 15 17  1  0
 14 18  1  0
 18 19  2  0
 19 20  1  0
 19 21  1  0
 21 22  1  0
 21 23  1  0
 18 24  1  0
 24 25  2  0
 10 26  1  0
 26 27  1  0
 27 28  4  0
 28 29  1  0
 28 30  4  0
 30 31  1  0
 30 32  4  0
 32 33  1  0
 32 34  4  0
 34 35  4  0
 35 36  1  0
 26 37  1  0
 26 38  1  0
  9 39  1  0
 39 40  2  0
 39 41  1  0
 41 42  1  0
 41 43  1  0
 43 44  1  0
 44 45  4  0
 45 46  1  0
 45 47  4  0
 47 48  1  0
 47 49  4  0
 49 50  1  0
 49 51  4  0
 51 52  1  0
 51 53  4  0
 53 54  1  0
 43 55  1  0
 43 56  1  0
  9 57  1  6
  8 58  4  0
 58 59  1  0
 58 60  4  0
 60 61  1  0
  2 62  1  0
 62 63  1  0
 62 64  1  0
 62 65  1  0
  1 66  1  0
  1 67  1  0
  1 68  1  0
 60  3  4  0
 25 13  1  0
 35 27  4  0
 53 44  4  0
M  CHG  2  20  -1  25   1
M  END
>  <sample_id>  (341)
train::CN(C)c1ccc(C(C(=O)NCc2ccccc2)N(Cc2cccnc2)C(=O)c2snc(C(N)=O)c2N)cc1__gen0001

>  <partition>  (341)
BAT_EXTERNAL_CONFIRM

>  <method>  (341)
BA_seed193

>  <candidate>  (341)
primary

$$$$
train::CN(C)c1ccc(C(C(=O)NCc2ccccc2)N(Cc2cccnc2)C(=O)c2snc(C(N)=O)c2N)cc1__gen0002
     RDKit          3D

 68 71  0  0  0  0  0  0  0  0999 V2000
   -4.0012   -1.6415   -4.6410 C   0  0  0  0  0  0  0  0  0  0  0  0
   -2.5719   -1.8780   -4.6436 N   0  0  0  0  0  0  0  0  0  1  0  0
   -1.8368   -1.6477   -3.5114 C   0  0  0  0  0  0  0  0  0  2  0  0
   -0.4373   -1.6949   -3.5330 C   0  0  0  0  0  0  0  0  0  3  0  0
    0.0880   -1.9396   -4.4429 H   0  0  0  0  0  0  0  0  0 60  0  0
    0.3066   -1.4019   -2.4010 C   0  0  0  0  0  0  0  0  0  4  0  0
    1.3837   -1.4489   -2.4732 H   0  0  0  0  0  0  0  0  0 59  0  0
   -0.3059   -1.0971   -1.1985 C   0  0  0  0  0  0  0  0  0  5  0  0
    0.4149   -0.7146    0.0791 C   0  0  2  0  0  0  0  0  0 10  0  0
    0.2182    0.7140    0.3639 N   0  0  0  0  0  0  0  0  0 11  0  0
   -0.0785    1.0594    1.6361 C   0  0  0  0  0  0  0  0  0 12  0  0
   -0.0901    0.2066    2.5090 O   0  0  0  0  0  0  0  0  0 13  0  0
   -0.4327    2.4325    1.9633 C   0  0  0  0  0  0  0  0  0 14  0  0
   -0.7687    2.7980    3.2768 C   0  0  0  0  0  0  0  0  0 15  0  0
   -0.8571    2.0139    4.3343 N   0  0  0  0  0  0  0  0  0 16  0  0
   -1.0148    2.4486    5.2399 H   0  0  0  0  0  0  0  0  0 17  0  0
   -0.5684    1.0428    4.2424 H   0  0  0  0  0  0  0  0  0 18  0  0
   -1.0744    4.2123    3.3121 C   0  0  0  0  0  0  0  0  0 19  0  0
   -1.4258    4.9272    4.5516 C   0  0  0  0  0  0  0  0  0 22  0  0
   -1.5096    4.3736    5.6351 O   0  0  0  0  0  0  0  0  0 23  0  0
   -1.6308    6.2517    4.3682 N   0  0  0  0  0  0  0  0  0 24  0  0
   -1.5513    6.6436    3.4573 H   0  0  0  0  0  0  0  0  0 25  0  0
   -1.9266    6.8173    5.1550 H   0  0  0  0  0  0  0  0  0 26  0  0
   -0.9405    4.8384    2.1650 N   0  0  0  0  0  0  0  0  0 20  0  0
   -0.5089    3.8431    0.9596 S   0  0  0  0  0  0  0  0  0 21  0  0
    0.5392    1.5844   -0.7451 C   0  0  0  0  0  0  0  0  0 27  0  0
   -0.6030    1.8183   -1.7018 C   0  0  0  0  0  0  0  0  0 28  0  0
   -1.9323    1.8497   -1.2922 C   0  0  0  0  0  0  0  0  0 29  0  0
   -2.1898    1.7579   -0.2424 H   0  0  0  0  0  0  0  0  0 37  0  0
   -2.9321    1.9984   -2.2390 C   0  0  0  0  0  0  0  0  0 30  0  0
   -3.9623    2.0295   -1.9399 H   0  0  0  0  0  0  0  0  0 36  0  0
   -2.5658    2.0972   -3.5693 C   0  0  0  0  0  0  0  0  0 31  0  0
   -3.2980    2.2200   -4.3530 H   0  0  0  0  0  0  0  0  0 35  0  0
   -1.3135    2.0907   -3.9666 N   0  0  0  0  0  0  0  0  0 32  0  0
   -0.3621    1.9519   -3.0661 C   0  0  0  0  0  0  0  0  0 33  0  0
    0.6462    1.9505   -3.4484 H   0  0  0  0  0  0  0  0  0 34  0  0
    1.3503    1.1210   -1.3043 H   0  0  0  0  0  0  0  0  0 38  0  0
    0.9205    2.5473   -0.3683 H   0  0  0  0  0  0  0  0  0 39  0  0
    1.9518   -0.9599    0.0834 C   0  0  0  0  0  0  0  0  0 40  0  0
    2.6422   -1.1068   -0.8909 O   0  0  0  0  0  0  0  0  0 41  0  0
    2.4131   -0.9478    1.3557 N   0  0  0  0  0  0  0  0  0 42  0  0
    1.7760   -0.8025    2.1318 H   0  0  0  0  0  0  0  0  0 43  0  0
    3.8030   -1.1676    1.6755 C   0  0  0  0  0  0  0  0  0 44  0  0
    3.9936   -2.3801    2.5282 C   0  0  0  0  0  0  0  0  0 45  0  0
    3.2897   -3.5478    2.2583 C   0  0  0  0  0  0  0  0  0 46  0  0
    2.6230   -3.6013    1.4138 H   0  0  0  0  0  0  0  0  0 55  0  0
    3.4645   -4.6763    3.0492 C   0  0  0  0  0  0  0  0  0 47  0  0
    2.9113   -5.5756    2.8260 H   0  0  0  0  0  0  0  0  0 54  0  0
    4.3280   -4.6393    4.1367 C   0  0  0  0  0  0  0  0  0 48  0  0
    4.4489   -5.5058    4.7572 H   0  0  0  0  0  0  0  0  0 53  0  0
    5.0291   -3.4729    4.4269 C   0  0  0  0  0  0  0  0  0 49  0  0
    5.6885   -3.4290    5.2798 H   0  0  0  0  0  0  0  0  0 52  0  0
    4.8413   -2.3459    3.6325 C   0  0  0  0  0  0  0  0  0 50  0  0
    5.3883   -1.4414    3.8520 H   0  0  0  0  0  0  0  0  0 51  0  0
    4.3301   -1.2880    0.7238 H   0  0  0  0  0  0  0  0  0 56  0  0
    4.2259   -0.2966    2.1890 H   0  0  0  0  0  0  0  0  0 57  0  0
   -0.0357   -1.2804    0.9025 H   0  0  0  0  0  0  0  0  0 58  0  0
   -1.6932   -1.1025   -1.1561 C   0  0  0  0  0  0  0  0  0  6  0  0
   -2.1972   -0.8873   -0.2230 H   0  0  0  0  0  0  0  0  0  9  0  0
   -2.4464   -1.3410   -2.2771 C   0  0  0  0  0  0  0  0  0  7  0  0
   -3.5279   -1.3176   -2.2035 H   0  0  0  0  0  0  0  0  0  8  0  0
   -1.9385   -2.0398   -5.9173 C   0  0  0  0  0  0  0  0  0 61  0  0
   -2.6943   -2.1880   -6.6814 H   0  0  0  0  0  0  0  0  0 62  0  0
   -1.2848   -2.9189   -5.8948 H   0  0  0  0  0  0  0  0  0 63  0  0
   -1.3284   -1.1702   -6.1887 H   0  0  0  0  0  0  0  0  0 64  0  0
   -4.2601   -0.5866   -4.4482 H   0  0  0  0  0  0  0  0  0 65  0  0
   -4.5038   -2.2478   -3.8964 H   0  0  0  0  0  0  0  0  0 66  0  0
   -4.4157   -1.9110   -5.6128 H   0  0  0  0  0  0  0  0  0 67  0  0
  1  2  1  0
  2  3  1  0
  3  4  4  0
  4  5  1  0
  4  6  4  0
  6  7  1  0
  6  8  4  0
  8  9  1  0
  9 10  1  0
 10 11  1  0
 11 12  2  0
 11 13  1  0
 13 14  2  0
 14 15  1  0
 15 16  1  0
 15 17  1  0
 14 18  1  0
 18 19  2  0
 19 20  1  0
 19 21  1  0
 21 22  1  0
 21 23  1  0
 18 24  1  0
 24 25  2  0
 10 26  1  0
 26 27  1  0
 27 28  4  0
 28 29  1  0
 28 30  4  0
 30 31  1  0
 30 32  4  0
 32 33  1  0
 32 34  4  0
 34 35  4  0
 35 36  1  0
 26 37  1  0
 26 38  1  0
  9 39  1  0
 39 40  2  0
 39 41  1  0
 41 42  1  0
 41 43  1  0
 43 44  1  0
 44 45  4  0
 45 46  1  0
 45 47  4  0
 47 48  1  0
 47 49  4  0
 49 50  1  0
 49 51  4  0
 51 52  1  0
 51 53  4  0
 53 54  1  0
 43 55  1  0
 43 56  1  0
  9 57  1  1
  8 58  4  0
 58 59  1  0
 58 60  4  0
 60 61  1  0
  2 62  1  0
 62 63  1  0
 62 64  1  0
 62 65  1  0
  1 66  1  0
  1 67  1  0
  1 68  1  0
 60  3  4  0
 25 13  1  0
 35 27  4  0
 53 44  4  0
M  CHG  2  20  -1  25   1
M  END
>  <sample_id>  (342)
train::CN(C)c1ccc(C(C(=O)NCc2ccccc2)N(Cc2cccnc2)C(=O)c2snc(C(N)=O)c2N)cc1__gen0002

>  <partition>  (342)
BAT_EXTERNAL_CONFIRM

>  <method>  (342)
BA_seed193

>  <candidate>  (342)
primary

$$$$
train::CCc1nnc(NC(=O)CSc2nnc(-c3ccncc3)n2C)s1__gen0000
     RDKit          3D

 39 41  0  0  0  0  0  0  0  0999 V2000
   -3.2446    3.7552   -4.5216 C   0  0  0  0  0  0  0  0  0  0  0  0
   -3.8721    3.9249   -3.6589 H   0  0  0  0  0  0  0  0  0  1  0  0
   -3.6070    4.3293   -5.3603 H   0  0  0  0  0  0  0  0  0  2  0  0
   -2.2255    4.0633   -4.2880 H   0  0  0  0  0  0  0  0  0  3  0  0
   -3.2565    2.2572   -4.8803 C   0  0  0  0  0  0  0  0  0  4  0  0
   -2.7536    1.4295   -3.7562 C   0  0  0  0  0  0  0  0  0  5  0  0
   -1.6804    0.7202   -3.7801 N   0  0  0  0  0  0  0  0  0  6  0  0
   -1.4045    0.0783   -2.6473 N   0  0  0  0  0  0  0  0  0  7  0  0
   -2.2898    0.2819   -1.7243 C   0  0  0  0  0  0  0  0  0  8  0  0
   -2.2245   -0.2842   -0.4847 N   0  0  0  0  0  0  0  0  0  9  0  0
   -3.1492    0.0091    0.4744 C   0  0  0  0  0  0  0  0  0 10  0  0
   -4.0953    0.7383    0.3066 O   0  0  0  0  0  0  0  0  0 11  0  0
   -2.8895   -0.7185    1.8021 C   0  0  0  0  0  0  0  0  0 12  0  0
   -3.7892   -0.6282    2.4178 H   0  0  0  0  0  0  0  0  0 13  0  0
   -2.6349   -1.7579    1.6203 H   0  0  0  0  0  0  0  0  0 14  0  0
   -1.5534    0.0624    2.7470 S   0  0  0  0  0  0  0  0  0 15  0  0
   -0.1842   -0.7149    2.0099 C   0  0  0  0  0  0  0  0  0 16  0  0
   -0.1906   -1.4569    0.9282 N   0  0  0  0  0  0  0  0  0 17  0  0
    1.0472   -1.8591    0.6838 N   0  0  0  0  0  0  0  0  0 18  0  0
    1.8374   -1.3556    1.6075 C   0  0  0  0  0  0  0  0  0 19  0  0
    3.2691   -1.5669    1.6341 C   0  0  0  0  0  0  0  0  0 25  0  0
    4.0129   -1.6214    2.8175 C   0  0  0  0  0  0  0  0  0 26  0  0
    3.5459   -1.5354    3.7811 H   0  0  0  0  0  0  0  0  0 34  0  0
    5.3724   -1.8603    2.7284 C   0  0  0  0  0  0  0  0  0 27  0  0
    5.9822   -1.9275    3.6068 H   0  0  0  0  0  0  0  0  0 33  0  0
    6.0086   -2.0303    1.5764 N   0  0  0  0  0  0  0  0  0 28  0  0
    5.2968   -1.9948    0.4530 C   0  0  0  0  0  0  0  0  0 29  0  0
    5.8611   -2.1649   -0.4474 H   0  0  0  0  0  0  0  0  0 32  0  0
    3.9294   -1.7705    0.4265 C   0  0  0  0  0  0  0  0  0 30  0  0
    3.3862   -1.7463   -0.5030 H   0  0  0  0  0  0  0  0  0 31  0  0
    1.0818   -0.5873    2.4791 N   0  0  0  0  0  0  0  0  0 20  0  0
    1.5074    0.2102    3.5985 C   0  0  0  0  0  0  0  0  0 21  0  0
    2.4808    0.6464    3.3879 H   0  0  0  0  0  0  0  0  0 22  0  0
    1.5596   -0.3930    4.5069 H   0  0  0  0  0  0  0  0  0 23  0  0
    0.7813    1.0072    3.7581 H   0  0  0  0  0  0  0  0  0 24  0  0
   -1.4252   -0.8841   -0.2615 H   0  0  0  0  0  0  0  0  0 35  0  0
   -3.6000    1.3416   -2.1790 S   0  0  0  0  0  0  0  0  0 36  0  0
   -4.2775    1.9436   -5.1128 H   0  0  0  0  0  0  0  0  0 37  0  0
   -2.6128    2.0594   -5.7465 H   0  0  0  0  0  0  0  0  0 38  0  0
  1  2  1  0
  1  3  1  0
  1  4  1  0
  1  5  1  0
  5  6  1  0
  6  7  4  0
  7  8  4  0
  8  9  4  0
  9 10  1  0
 10 11  1  0
 11 12  2  0
 11 13  1  0
 13 14  1  0
 13 15  1  0
 13 16  1  0
 16 17  1  0
 17 18  4  0
 18 19  4  0
 19 20  4  0
 20 21  1  0
 21 22  4  0
 22 23  1  0
 22 24  4  0
 24 25  1  0
 24 26  4  0
 26 27  4  0
 27 28  1  0
 27 29  4  0
 29 30  1  0
 20 31  4  0
 31 32  1  0
 32 33  1  0
 32 34  1  0
 32 35  1  0
 10 36  1  0
  9 37  4  0
  5 38  1  0
  5 39  1  0
 37  6  4  0
 31 17  4  0
 29 21  4  0
M  END
>  <sample_id>  (343)
train::CCc1nnc(NC(=O)CSc2nnc(-c3ccncc3)n2C)s1__gen0000

>  <partition>  (343)
BAT_EXTERNAL_CONFIRM

>  <method>  (343)
BA_seed193

>  <candidate>  (343)
primary

$$$$
train::CCc1nnc(NC(=O)CSc2nnc(-c3ccncc3)n2C)s1__gen0001
     RDKit          3D

 39 41  0  0  0  0  0  0  0  0999 V2000
    0.8515   -3.6146    5.6482 C   0  0  0  0  0  0  0  0  0  0  0  0
    0.2534   -4.0975    4.8700 H   0  0  0  0  0  0  0  0  0  1  0  0
    0.2658   -2.7935    6.0617 H   0  0  0  0  0  0  0  0  0  2  0  0
    1.0239   -4.3413    6.4375 H   0  0  0  0  0  0  0  0  0  3  0  0
    2.1629   -3.1036    5.0752 C   0  0  0  0  0  0  0  0  0  4  0  0
    1.9383   -2.1174    3.9801 C   0  0  0  0  0  0  0  0  0  5  0  0
    2.2838   -2.2988    2.7597 N   0  0  0  0  0  0  0  0  0  6  0  0
    1.9691   -1.2884    1.9527 N   0  0  0  0  0  0  0  0  0  7  0  0
    1.3685   -0.3105    2.5648 C   0  0  0  0  0  0  0  0  0  8  0  0
    0.9576    0.8208    1.9307 N   0  0  0  0  0  0  0  0  0  9  0  0
    0.2974    1.7991    2.5905 C   0  0  0  0  0  0  0  0  0 10  0  0
    0.0246    1.7750    3.7709 O   0  0  0  0  0  0  0  0  0 11  0  0
   -0.0701    2.9960    1.7154 C   0  0  0  0  0  0  0  0  0 12  0  0
   -0.3819    3.8186    2.3419 H   0  0  0  0  0  0  0  0  0 13  0  0
    0.7500    3.2734    1.0537 H   0  0  0  0  0  0  0  0  0 14  0  0
   -1.5223    2.6577    0.6562 S   0  0  0  0  0  0  0  0  0 15  0  0
   -0.7647    1.8271   -0.6596 C   0  0  0  0  0  0  0  0  0 16  0  0
    0.4878    1.4081   -0.6997 N   0  0  0  0  0  0  0  0  0 17  0  0
    0.6953    0.8480   -1.8961 N   0  0  0  0  0  0  0  0  0 18  0  0
   -0.4304    0.9044   -2.5677 C   0  0  0  0  0  0  0  0  0 19  0  0
   -0.5607    0.3811   -3.9258 C   0  0  0  0  0  0  0  0  0 25  0  0
    0.5282    0.4140   -4.7792 C   0  0  0  0  0  0  0  0  0 26  0  0
    1.4713    0.8055   -4.4191 H   0  0  0  0  0  0  0  0  0 34  0  0
    0.3924   -0.0923   -6.0616 C   0  0  0  0  0  0  0  0  0 27  0  0
    1.2224   -0.0867   -6.7528 H   0  0  0  0  0  0  0  0  0 33  0  0
   -0.7322   -0.5984   -6.5217 N   0  0  0  0  0  0  0  0  0 28  0  0
   -1.7762   -0.6552   -5.7028 C   0  0  0  0  0  0  0  0  0 29  0  0
   -2.6749   -1.0859   -6.1170 H   0  0  0  0  0  0  0  0  0 32  0  0
   -1.7548   -0.1723   -4.4004 C   0  0  0  0  0  0  0  0  0 30  0  0
   -2.6290   -0.2727   -3.7808 H   0  0  0  0  0  0  0  0  0 31  0  0
   -1.4045    1.5260   -1.8239 N   0  0  0  0  0  0  0  0  0 20  0  0
   -2.7374    1.8992   -2.1838 C   0  0  0  0  0  0  0  0  0 21  0  0
   -2.7853    2.1106   -3.2562 H   0  0  0  0  0  0  0  0  0 22  0  0
   -3.0138    2.8024   -1.6367 H   0  0  0  0  0  0  0  0  0 23  0  0
   -3.4443    1.1076   -1.9324 H   0  0  0  0  0  0  0  0  0 24  0  0
    1.1097    0.8950    0.9175 H   0  0  0  0  0  0  0  0  0 35  0  0
    1.1349   -0.5753    4.2649 S   0  0  0  0  0  0  0  0  0 36  0  0
    2.7535   -2.6333    5.8708 H   0  0  0  0  0  0  0  0  0 37  0  0
    2.7403   -3.9319    4.6549 H   0  0  0  0  0  0  0  0  0 38  0  0
  1  2  1  0
  1  3  1  0
  1  4  1  0
  1  5  1  0
  5  6  1  0
  6  7  4  0
  7  8  4  0
  8  9  4  0
  9 10  1  0
 10 11  1  0
 11 12  2  0
 11 13  1  0
 13 14  1  0
 13 15  1  0
 13 16  1  0
 16 17  1  0
 17 18  4  0
 18 19  4  0
 19 20  4  0
 20 21  1  0
 21 22  4  0
 22 23  1  0
 22 24  4  0
 24 25  1  0
 24 26  4  0
 26 27  4  0
 27 28  1  0
 27 29  4  0
 29 30  1  0
 20 31  4  0
 31 32  1  0
 32 33  1  0
 32 34  1  0
 32 35  1  0
 10 36  1  0
  9 37  4  0
  5 38  1  0
  5 39  1  0
 37  6  4  0
 31 17  4  0
 29 21  4  0
M  END
>  <sample_id>  (344)
train::CCc1nnc(NC(=O)CSc2nnc(-c3ccncc3)n2C)s1__gen0001

>  <partition>  (344)
BAT_EXTERNAL_CONFIRM

>  <method>  (344)
BA_seed193

>  <candidate>  (344)
primary

$$$$
train::CCc1nnc(NC(=O)CSc2nnc(-c3ccncc3)n2C)s1__gen0002
     RDKit          3D

 39 41  0  0  0  0  0  0  0  0999 V2000
   -2.2321    5.6723   -1.4457 C   0  0  0  0  0  0  0  0  0  0  0  0
   -2.2589    5.5432   -0.3691 H   0  0  0  0  0  0  0  0  0  1  0  0
   -3.1888    6.0598   -1.7846 H   0  0  0  0  0  0  0  0  0  2  0  0
   -1.4510    6.3929   -1.6765 H   0  0  0  0  0  0  0  0  0  3  0  0
   -1.9320    4.3376   -2.1343 C   0  0  0  0  0  0  0  0  0  4  0  0
   -0.6231    3.7816   -1.7207 C   0  0  0  0  0  0  0  0  0  5  0  0
    0.2073    4.3701   -0.9514 N   0  0  0  0  0  0  0  0  0  6  0  0
    1.3314    3.6785   -0.7036 N   0  0  0  0  0  0  0  0  0  7  0  0
    1.3491    2.5329   -1.2856 C   0  0  0  0  0  0  0  0  0  8  0  0
    2.3876    1.6738   -1.2150 N   0  0  0  0  0  0  0  0  0  9  0  0
    2.3720    0.4432   -1.8088 C   0  0  0  0  0  0  0  0  0 10  0  0
    1.4824    0.0842   -2.5438 O   0  0  0  0  0  0  0  0  0 11  0  0
    3.6109   -0.4063   -1.5472 C   0  0  0  0  0  0  0  0  0 12  0  0
    4.2462   -0.4185   -2.4329 H   0  0  0  0  0  0  0  0  0 13  0  0
    4.1618   -0.0540   -0.6747 H   0  0  0  0  0  0  0  0  0 14  0  0
    3.1001   -2.1224   -1.2692 S   0  0  0  0  0  0  0  0  0 15  0  0
    1.8861   -1.7784   -0.0963 C   0  0  0  0  0  0  0  0  0 16  0  0
    1.6999   -0.6185    0.4797 N   0  0  0  0  0  0  0  0  0 17  0  0
    0.6654   -0.7293    1.3137 N   0  0  0  0  0  0  0  0  0 18  0  0
    0.2146   -1.9646    1.2627 C   0  0  0  0  0  0  0  0  0 19  0  0
   -0.9053   -2.4338    2.0346 C   0  0  0  0  0  0  0  0  0 25  0  0
   -1.1596   -1.8530    3.2811 C   0  0  0  0  0  0  0  0  0 26  0  0
   -0.5176   -1.0620    3.6406 H   0  0  0  0  0  0  0  0  0 34  0  0
   -2.2392   -2.3197    4.0230 C   0  0  0  0  0  0  0  0  0 27  0  0
   -2.4542   -1.9004    5.0030 H   0  0  0  0  0  0  0  0  0 33  0  0
   -3.0373   -3.2893    3.6112 N   0  0  0  0  0  0  0  0  0 28  0  0
   -2.8182   -3.8130    2.4269 C   0  0  0  0  0  0  0  0  0 29  0  0
   -3.5172   -4.5832    2.1142 H   0  0  0  0  0  0  0  0  0 32  0  0
   -1.7691   -3.4466    1.5905 C   0  0  0  0  0  0  0  0  0 30  0  0
   -1.6694   -3.8903    0.6141 H   0  0  0  0  0  0  0  0  0 31  0  0
    0.9750   -2.6904    0.3675 N   0  0  0  0  0  0  0  0  0 20  0  0
    0.9335   -4.0739    0.0089 C   0  0  0  0  0  0  0  0  0 21  0  0
    1.9330   -4.4048   -0.2479 H   0  0  0  0  0  0  0  0  0 22  0  0
    0.2838   -4.2333   -0.8530 H   0  0  0  0  0  0  0  0  0 23  0  0
    0.5761   -4.6642    0.8562 H   0  0  0  0  0  0  0  0  0 24  0  0
    3.0728    1.9075   -0.5010 H   0  0  0  0  0  0  0  0  0 35  0  0
   -0.0799    2.1921   -2.2562 S   0  0  0  0  0  0  0  0  0 36  0  0
   -2.7048    3.6036   -1.8917 H   0  0  0  0  0  0  0  0  0 37  0  0
   -1.9311    4.4765   -3.2187 H   0  0  0  0  0  0  0  0  0 38  0  0
  1  2  1  0
  1  3  1  0
  1  4  1  0
  1  5  1  0
  5  6  1  0
  6  7  4  0
  7  8  4  0
  8  9  4  0
  9 10  1  0
 10 11  1  0
 11 12  2  0
 11 13  1  0
 13 14  1  0
 13 15  1  0
 13 16  1  0
 16 17  1  0
 17 18  4  0
 18 19  4  0
 19 20  4  0
 20 21  1  0
 21 22  4  0
 22 23  1  0
 22 24  4  0
 24 25  1  0
 24 26  4  0
 26 27  4  0
 27 28  1  0
 27 29  4  0
 29 30  1  0
 20 31  4  0
 31 32  1  0
 32 33  1  0
 32 34  1  0
 32 35  1  0
 10 36  1  0
  9 37  4  0
  5 38  1  0
  5 39  1  0
 37  6  4  0
 31 17  4  0
 29 21  4  0
M  END
>  <sample_id>  (345)
train::CCc1nnc(NC(=O)CSc2nnc(-c3ccncc3)n2C)s1__gen0002

>  <partition>  (345)
BAT_EXTERNAL_CONFIRM

>  <method>  (345)
BA_seed193

>  <candidate>  (345)
primary

$$$$
train::Cc1ccc(S(=O)(=O)NC(CC(=O)NCc2ccco2)c2ccco2)cc1__gen0000
     RDKit          3D

 47 49  0  0  0  0  0  0  0  0999 V2000
   -3.6349   -0.1058   -4.3328 C   0  0  0  0  0  0  0  0  0  0  0  0
   -2.3998   -0.0995   -3.4724 C   0  0  0  0  0  0  0  0  0  1  0  0
   -1.7175   -1.2788   -3.1919 C   0  0  0  0  0  0  0  0  0  2  0  0
   -2.1019   -2.2148   -3.5901 H   0  0  0  0  0  0  0  0  0 43  0  0
   -0.5967   -1.2713   -2.3813 C   0  0  0  0  0  0  0  0  0  3  0  0
   -0.0536   -2.1691   -2.1469 H   0  0  0  0  0  0  0  0  0 42  0  0
   -0.1498   -0.0644   -1.8747 C   0  0  0  0  0  0  0  0  0  4  0  0
    1.2455   -0.0666   -0.7287 S   0  0  2  0  0  6  0  0  0  9  0  0
    2.0381    1.1091   -0.9813 O   0  0  0  0  0  0  0  0  0 10  0  0
    1.8615   -1.3689   -0.6984 O   0  0  0  0  0  0  0  0  0 11  0  0
    0.5418    0.1256    0.7731 N   0  0  0  0  0  0  0  0  0 12  0  0
    0.3722    1.0958    0.9755 H   0  0  0  0  0  0  0  0  0 13  0  0
   -0.5671   -0.7737    1.0702 C   0  0  2  0  0  0  0  0  0 14  0  0
   -1.8631   -0.0290    0.9459 C   0  0  0  0  0  0  0  0  0 15  0  0
   -2.1863    1.2474    1.2826 C   0  0  0  0  0  0  0  0  0 16  0  0
   -1.5614    1.9724    1.7545 H   0  0  0  0  0  0  0  0  0 22  0  0
   -3.5302    1.4375    0.8777 C   0  0  0  0  0  0  0  0  0 17  0  0
   -4.1273    2.3090    1.0034 H   0  0  0  0  0  0  0  0  0 21  0  0
   -3.9195    0.2535    0.3267 C   0  0  0  0  0  0  0  0  0 18  0  0
   -4.8545   -0.0740   -0.0965 H   0  0  0  0  0  0  0  0  0 20  0  0
   -2.9113   -0.6320    0.3607 O   0  0  0  0  0  0  0  0  0 19  0  0
   -0.5351   -1.5722    0.3101 H   0  0  0  0  0  0  0  0  0 23  0  0
   -0.3728   -1.4782    2.4236 C   0  0  0  0  0  0  0  0  0 24  0  0
    0.8519   -0.9899    3.1648 C   0  0  0  0  0  0  0  0  0 25  0  0
    0.7862   -0.3078    4.1646 O   0  0  0  0  0  0  0  0  0 26  0  0
    2.0125   -1.4118    2.6099 N   0  0  0  0  0  0  0  0  0 27  0  0
    1.9854   -1.7921    1.6815 H   0  0  0  0  0  0  0  0  0 28  0  0
    3.2970   -0.8652    3.0331 C   0  0  0  0  0  0  0  0  0 29  0  0
    3.8134    0.1048    2.0140 C   0  0  0  0  0  0  0  0  0 30  0  0
    3.5429    1.4220    1.8390 C   0  0  0  0  0  0  0  0  0 31  0  0
    2.9190    2.0510    2.4479 H   0  0  0  0  0  0  0  0  0 37  0  0
    4.2620    1.7959    0.6714 C   0  0  0  0  0  0  0  0  0 32  0  0
    4.2792    2.7620    0.2153 H   0  0  0  0  0  0  0  0  0 36  0  0
    4.8992    0.6788    0.2457 C   0  0  0  0  0  0  0  0  0 33  0  0
    5.5362    0.4894   -0.5936 H   0  0  0  0  0  0  0  0  0 35  0  0
    4.6387   -0.3483    1.0617 O   0  0  0  0  0  0  0  0  0 34  0  0
    4.0012   -1.6895    3.1724 H   0  0  0  0  0  0  0  0  0 38  0  0
    3.1106   -0.3717    3.9913 H   0  0  0  0  0  0  0  0  0 39  0  0
   -0.3046   -2.5542    2.2608 H   0  0  0  0  0  0  0  0  0 40  0  0
   -1.2471   -1.2973    3.0648 H   0  0  0  0  0  0  0  0  0 41  0  0
   -0.7819    1.1271   -2.1629 C   0  0  0  0  0  0  0  0  0  5  0  0
   -0.3979    2.0333   -1.7353 H   0  0  0  0  0  0  0  0  0  8  0  0
   -1.9150    1.0996   -2.9540 C   0  0  0  0  0  0  0  0  0  6  0  0
   -2.4345    2.0165   -3.1683 H   0  0  0  0  0  0  0  0  0  7  0  0
   -3.5669    0.6655   -5.0906 H   0  0  0  0  0  0  0  0  0 44  0  0
   -4.5075    0.0974   -3.7231 H   0  0  0  0  0  0  0  0  0 45  0  0
   -3.7565   -1.0673   -4.8193 H   0  0  0  0  0  0  0  0  0 46  0  0
  1  2  1  0
  2  3  4  0
  3  4  1  0
  3  5  4  0
  5  6  1  0
  5  7  4  0
  7  8  1  0
  8  9  2  0
  8 10  2  0
  8 11  1  1
 11 12  1  0
 11 13  1  0
 13 14  1  0
 14 15  4  0
 15 16  1  0
 15 17  4  0
 17 18  1  0
 17 19  4  0
 19 20  1  0
 19 21  4  0
 13 22  1  1
 13 23  1  0
 23 24  1  0
 24 25  2  0
 24 26  1  0
 26 27  1  0
 26 28  1  0
 28 29  1  0
 29 30  4  0
 30 31  1  0
 30 32  4  0
 32 33  1  0
 32 34  4  0
 34 35  1  0
 34 36  4  0
 28 37  1  0
 28 38  1  0
 23 39  1  0
 23 40  1  0
  7 41  4  0
 41 42  1  0
 41 43  4  0
 43 44  1  0
  1 45  1  0
  1 46  1  0
  1 47  1  0
 43  2  4  0
 21 14  4  0
 36 29  4  0
M  END
>  <sample_id>  (346)
train::Cc1ccc(S(=O)(=O)NC(CC(=O)NCc2ccco2)c2ccco2)cc1__gen0000

>  <partition>  (346)
BAT_EXTERNAL_CONFIRM

>  <method>  (346)
BA_seed193

>  <candidate>  (346)
primary

$$$$
train::Cc1ccc(S(=O)(=O)NC(CC(=O)NCc2ccco2)c2ccco2)cc1__gen0001
     RDKit          3D

 47 49  0  0  0  0  0  0  0  0999 V2000
    0.9780   -4.6378    2.9198 C   0  0  0  0  0  0  0  0  0  0  0  0
    1.1628   -3.4038    2.0919 C   0  0  0  0  0  0  0  0  0  1  0  0
    1.6392   -3.4733    0.7924 C   0  0  0  0  0  0  0  0  0  2  0  0
    1.9023   -4.4334    0.3794 H   0  0  0  0  0  0  0  0  0 43  0  0
    1.7883   -2.3304    0.0319 C   0  0  0  0  0  0  0  0  0  3  0  0
    2.1641   -2.3743   -0.9773 H   0  0  0  0  0  0  0  0  0 42  0  0
    1.4681   -1.1065    0.5777 C   0  0  0  0  0  0  0  0  0  4  0  0
    1.5400    0.3750   -0.3998 S   0  0  2  0  0  6  0  0  0  9  0  0
    2.1584    0.1029   -1.6640 O   0  0  0  0  0  0  0  0  0 10  0  0
    2.0632    1.4468    0.3933 O   0  0  0  0  0  0  0  0  0 11  0  0
   -0.0408    0.7616   -0.7057 N   0  0  0  0  0  0  0  0  0 12  0  0
   -0.4502    1.3002    0.0422 H   0  0  0  0  0  0  0  0  0 13  0  0
   -0.9376   -0.2321   -1.2996 C   0  0  1  0  0  0  0  0  0 14  0  0
   -1.4465   -1.1620   -0.2629 C   0  0  0  0  0  0  0  0  0 15  0  0
   -1.4705   -2.5246   -0.2030 C   0  0  0  0  0  0  0  0  0 16  0  0
   -1.1500   -3.2083   -0.9607 H   0  0  0  0  0  0  0  0  0 22  0  0
   -2.0421   -2.8490    1.0527 C   0  0  0  0  0  0  0  0  0 17  0  0
   -2.2346   -3.8265    1.4391 H   0  0  0  0  0  0  0  0  0 21  0  0
   -2.3044   -1.6631    1.6592 C   0  0  0  0  0  0  0  0  0 18  0  0
   -2.7443   -1.4257    2.6053 H   0  0  0  0  0  0  0  0  0 20  0  0
   -1.9325   -0.6436    0.8853 O   0  0  0  0  0  0  0  0  0 19  0  0
   -0.3101   -0.7772   -2.0169 H   0  0  0  0  0  0  0  0  0 23  0  0
   -2.0978    0.4361   -2.0747 C   0  0  0  0  0  0  0  0  0 24  0  0
   -2.1887    1.9294   -1.7738 C   0  0  0  0  0  0  0  0  0 25  0  0
   -2.9756    2.3862   -0.9627 O   0  0  0  0  0  0  0  0  0 26  0  0
   -1.3015    2.6739   -2.4635 N   0  0  0  0  0  0  0  0  0 27  0  0
   -0.5981    2.2013   -3.0069 H   0  0  0  0  0  0  0  0  0 28  0  0
   -1.0126    4.0469   -2.1172 C   0  0  0  0  0  0  0  0  0 29  0  0
    0.2725    4.1196   -1.3616 C   0  0  0  0  0  0  0  0  0 30  0  0
    0.5438    4.4662   -0.0766 C   0  0  0  0  0  0  0  0  0 31  0  0
   -0.1528    4.7941    0.6689 H   0  0  0  0  0  0  0  0  0 37  0  0
    1.9447    4.2837    0.0768 C   0  0  0  0  0  0  0  0  0 32  0  0
    2.5160    4.4457    0.9623 H   0  0  0  0  0  0  0  0  0 36  0  0
    2.4058    3.8264   -1.1126 C   0  0  0  0  0  0  0  0  0 33  0  0
    3.3836    3.5567   -1.4629 H   0  0  0  0  0  0  0  0  0 35  0  0
    1.4047    3.7502   -1.9941 O   0  0  0  0  0  0  0  0  0 34  0  0
   -0.9347    4.6310   -3.0481 H   0  0  0  0  0  0  0  0  0 38  0  0
   -1.8381    4.4295   -1.5143 H   0  0  0  0  0  0  0  0  0 39  0  0
   -3.0474   -0.0260   -1.8120 H   0  0  0  0  0  0  0  0  0 40  0  0
   -1.9358    0.2962   -3.1417 H   0  0  0  0  0  0  0  0  0 41  0  0
    0.9966   -1.0076    1.8695 C   0  0  0  0  0  0  0  0  0  5  0  0
    0.7540   -0.0317    2.2710 H   0  0  0  0  0  0  0  0  0  8  0  0
    0.8243   -2.1584    2.6143 C   0  0  0  0  0  0  0  0  0  6  0  0
    0.4589   -2.0974    3.6341 H   0  0  0  0  0  0  0  0  0  7  0  0
    1.3661   -5.5246    2.4271 H   0  0  0  0  0  0  0  0  0 44  0  0
    1.4902   -4.5387    3.8866 H   0  0  0  0  0  0  0  0  0 45  0  0
   -0.0791   -4.8036    3.1318 H   0  0  0  0  0  0  0  0  0 46  0  0
  1  2  1  0
  2  3  4  0
  3  4  1  0
  3  5  4  0
  5  6  1  0
  5  7  4  0
  7  8  1  0
  8  9  2  0
  8 10  2  0
  8 11  1  6
 11 12  1  0
 11 13  1  0
 13 14  1  0
 14 15  4  0
 15 16  1  0
 15 17  4  0
 17 18  1  0
 17 19  4  0
 19 20  1  0
 19 21  4  0
 13 22  1  6
 13 23  1  0
 23 24  1  0
 24 25  2  0
 24 26  1  0
 26 27  1  0
 26 28  1  0
 28 29  1  0
 29 30  4  0
 30 31  1  0
 30 32  4  0
 32 33  1  0
 32 34  4  0
 34 35  1  0
 34 36  4  0
 28 37  1  0
 28 38  1  0
 23 39  1  0
 23 40  1  0
  7 41  4  0
 41 42  1  0
 41 43  4  0
 43 44  1  0
  1 45  1  0
  1 46  1  0
  1 47  1  0
 43  2  4  0
 21 14  4  0
 36 29  4  0
M  END
>  <sample_id>  (347)
train::Cc1ccc(S(=O)(=O)NC(CC(=O)NCc2ccco2)c2ccco2)cc1__gen0001

>  <partition>  (347)
BAT_EXTERNAL_CONFIRM

>  <method>  (347)
BA_seed193

>  <candidate>  (347)
primary

$$$$
train::Cc1ccc(S(=O)(=O)NC(CC(=O)NCc2ccco2)c2ccco2)cc1__gen0002
     RDKit          3D

 47 49  0  0  0  0  0  0  0  0999 V2000
    4.6307   -0.4803   -3.2522 C   0  0  0  0  0  0  0  0  0  0  0  0
    3.4086   -0.1278   -2.4565 C   0  0  0  0  0  0  0  0  0  1  0  0
    2.1669   -0.5999   -2.8506 C   0  0  0  0  0  0  0  0  0  2  0  0
    2.0847   -1.2269   -3.7378 H   0  0  0  0  0  0  0  0  0 43  0  0
    1.0217   -0.2966   -2.1330 C   0  0  0  0  0  0  0  0  0  3  0  0
    0.0504   -0.6519   -2.4261 H   0  0  0  0  0  0  0  0  0 42  0  0
    1.1354    0.4862   -0.9961 C   0  0  0  0  0  0  0  0  0  4  0  0
   -0.3206    0.8251   -0.0433 S   0  0  2  0  0  6  0  0  0  9  0  0
   -1.2973    1.4743   -0.8719 O   0  0  0  0  0  0  0  0  0 10  0  0
    0.0128    1.4854    1.1814 O   0  0  0  0  0  0  0  0  0 11  0  0
   -0.8925   -0.7079    0.2628 N   0  0  0  0  0  0  0  0  0 12  0  0
   -1.8895   -0.7696    0.1481 H   0  0  0  0  0  0  0  0  0 13  0  0
   -0.3703   -1.4868    1.3683 C   0  0  1  0  0  0  0  0  0 14  0  0
    1.1153   -1.4616    1.3386 C   0  0  0  0  0  0  0  0  0 15  0  0
    2.0676   -0.8609    2.0987 C   0  0  0  0  0  0  0  0  0 16  0  0
    1.9119   -0.2864    2.9921 H   0  0  0  0  0  0  0  0  0 22  0  0
    3.3189   -1.1294    1.4881 C   0  0  0  0  0  0  0  0  0 17  0  0
    4.2844   -0.7914    1.8092 H   0  0  0  0  0  0  0  0  0 21  0  0
    3.0266   -1.8920    0.3918 C   0  0  0  0  0  0  0  0  0 18  0  0
    3.6540   -2.3333   -0.3599 H   0  0  0  0  0  0  0  0  0 20  0  0
    1.7018   -2.1028    0.3027 O   0  0  0  0  0  0  0  0  0 19  0  0
   -0.7239   -2.5144    1.1978 H   0  0  0  0  0  0  0  0  0 23  0  0
   -0.9068   -1.0167    2.7381 C   0  0  0  0  0  0  0  0  0 24  0  0
   -2.4082   -0.7278    2.6077 C   0  0  0  0  0  0  0  0  0 25  0  0
   -3.2483   -1.6057    2.7082 O   0  0  0  0  0  0  0  0  0 26  0  0
   -2.6742    0.5752    2.3448 N   0  0  0  0  0  0  0  0  0 27  0  0
   -1.9011    1.1760    2.1048 H   0  0  0  0  0  0  0  0  0 28  0  0
   -4.0118    0.9769    1.9233 C   0  0  0  0  0  0  0  0  0 29  0  0
   -4.0447    1.2939    0.4677 C   0  0  0  0  0  0  0  0  0 30  0  0
   -4.2065    2.4526   -0.2136 C   0  0  0  0  0  0  0  0  0 31  0  0
   -4.4094    3.4185    0.2110 H   0  0  0  0  0  0  0  0  0 37  0  0
   -4.0923    2.1351   -1.5876 C   0  0  0  0  0  0  0  0  0 32  0  0
   -4.1781    2.8188   -2.4089 H   0  0  0  0  0  0  0  0  0 36  0  0
   -3.8675    0.7979   -1.6476 C   0  0  0  0  0  0  0  0  0 33  0  0
   -3.7068    0.1275   -2.4559 H   0  0  0  0  0  0  0  0  0 35  0  0
   -3.8409    0.2860   -0.4054 O   0  0  0  0  0  0  0  0  0 34  0  0
   -4.6765    0.1526    2.1596 H   0  0  0  0  0  0  0  0  0 38  0  0
   -4.3079    1.8656    2.4936 H   0  0  0  0  0  0  0  0  0 39  0  0
   -0.3898   -0.1014    3.0309 H   0  0  0  0  0  0  0  0  0 40  0  0
   -0.7642   -1.7955    3.4864 H   0  0  0  0  0  0  0  0  0 41  0  0
    2.3593    0.9842   -0.5882 C   0  0  0  0  0  0  0  0  0  5  0  0
    2.4041    1.5946    0.2994 H   0  0  0  0  0  0  0  0  0  8  0  0
    3.4929    0.6730   -1.3239 C   0  0  0  0  0  0  0  0  0  6  0  0
    4.4630    1.0385   -1.0051 H   0  0  0  0  0  0  0  0  0  7  0  0
    4.6055   -1.5162   -3.5606 H   0  0  0  0  0  0  0  0  0 44  0  0
    5.5399   -0.2945   -2.6783 H   0  0  0  0  0  0  0  0  0 45  0  0
    4.6730    0.1395   -4.1528 H   0  0  0  0  0  0  0  0  0 46  0  0
  1  2  1  0
  2  3  4  0
  3  4  1  0
  3  5  4  0
  5  6  1  0
  5  7  4  0
  7  8  1  0
  8  9  2  0
  8 10  2  0
  8 11  1  1
 11 12  1  0
 11 13  1  0
 13 14  1  0
 14 15  4  0
 15 16  1  0
 15 17  4  0
 17 18  1  0
 17 19  4  0
 19 20  1  0
 19 21  4  0
 13 22  1  6
 13 23  1  0
 23 24  1  0
 24 25  2  0
 24 26  1  0
 26 27  1  0
 26 28  1  0
 28 29  1  0
 29 30  4  0
 30 31  1  0
 30 32  4  0
 32 33  1  0
 32 34  4  0
 34 35  1  0
 34 36  4  0
 28 37  1  0
 28 38  1  0
 23 39  1  0
 23 40  1  0
  7 41  4  0
 41 42  1  0
 41 43  4  0
 43 44  1  0
  1 45  1  0
  1 46  1  0
  1 47  1  0
 43  2  4  0
 21 14  4  0
 36 29  4  0
M  END
>  <sample_id>  (348)
train::Cc1ccc(S(=O)(=O)NC(CC(=O)NCc2ccco2)c2ccco2)cc1__gen0002

>  <partition>  (348)
BAT_EXTERNAL_CONFIRM

>  <method>  (348)
BA_seed193

>  <candidate>  (348)
primary

$$$$
train::CC(C)n1cnnc1SCC(=O)Nc1ccc(Br)cc1F__gen0000
     RDKit          3D

 35 36  0  0  0  0  0  0  0  0999 V2000
   -4.1191    0.8939   -0.1127 C   0  0  0  0  0  0  0  0  0  0  0  0
   -3.7710    1.8824    0.1974 H   0  0  0  0  0  0  0  0  0  1  0  0
   -4.4381    0.9400   -1.1580 H   0  0  0  0  0  0  0  0  0  2  0  0
   -4.9771    0.6236    0.4965 H   0  0  0  0  0  0  0  0  0  3  0  0
   -3.0263   -0.1396    0.0636 C   0  0  1  0  0  0  0  0  0  4  0  0
   -1.9178    0.0904   -0.8281 N   0  0  0  0  0  0  0  0  0  5  0  0
   -1.1235    1.2000   -0.9773 C   0  0  0  0  0  0  0  0  0  6  0  0
   -1.2916    2.6951   -0.0907 S   0  0  0  0  0  0  0  0  0 11  0  0
    0.4848    2.9783    0.2536 C   0  0  0  0  0  0  0  0  0 12  0  0
    1.0449    1.6794    0.8176 C   0  0  0  0  0  0  0  0  0 13  0  0
    0.6891    1.2379    1.8955 O   0  0  0  0  0  0  0  0  0 14  0  0
    1.9096    1.0499   -0.0168 N   0  0  0  0  0  0  0  0  0 15  0  0
    2.4221   -0.2323    0.0825 C   0  0  0  0  0  0  0  0  0 16  0  0
    2.0949   -1.1281    1.1015 C   0  0  0  0  0  0  0  0  0 17  0  0
    1.4414   -0.7972    1.8978 H   0  0  0  0  0  0  0  0  0 26  0  0
    2.6111   -2.4154    1.1114 C   0  0  0  0  0  0  0  0  0 18  0  0
    2.3483   -3.0963    1.8911 H   0  0  0  0  0  0  0  0  0 25  0  0
    3.4424   -2.8170    0.0789 C   0  0  0  0  0  0  0  0  0 19  0  0
    4.1277   -4.5889    0.0862 Br  0  0  0  0  0  0  0  0  0 24  0  0
    3.7912   -1.9497   -0.9506 C   0  0  0  0  0  0  0  0  0 20  0  0
    4.4403   -2.2655   -1.7508 H   0  0  0  0  0  0  0  0  0 23  0  0
    3.2668   -0.6815   -0.9306 C   0  0  0  0  0  0  0  0  0 21  0  0
    3.6122    0.1854   -1.9128 F   0  0  0  0  0  0  0  0  0 22  0  0
    2.0874    1.4937   -0.9209 H   0  0  0  0  0  0  0  0  0 27  0  0
    0.9734    3.2995   -0.6628 H   0  0  0  0  0  0  0  0  0 28  0  0
    0.5059    3.7632    1.0160 H   0  0  0  0  0  0  0  0  0 29  0  0
   -0.1531    0.9613   -1.8324 N   0  0  0  0  0  0  0  0  0  7  0  0
   -0.3175   -0.2839   -2.2676 N   0  0  0  0  0  0  0  0  0  8  0  0
   -1.3466   -0.8038   -1.6837 C   0  0  0  0  0  0  0  0  0  9  0  0
   -1.7136   -1.7966   -1.8376 H   0  0  0  0  0  0  0  0  0 10  0  0
   -2.5110   -0.1986    1.5137 C   0  0  0  0  0  0  0  0  0 30  0  0
   -2.0484    0.7401    1.8062 H   0  0  0  0  0  0  0  0  0 31  0  0
   -1.7812   -0.9932    1.6273 H   0  0  0  0  0  0  0  0  0 32  0  0
   -3.3443   -0.3897    2.1833 H   0  0  0  0  0  0  0  0  0 33  0  0
   -3.4134   -1.1369   -0.1868 H   0  0  0  0  0  0  0  0  0 34  0  0
  1  2  1  0
  1  3  1  0
  1  4  1  0
  1  5  1  0
  5  6  1  0
  6  7  4  0
  7  8  1  0
  8  9  1  0
  9 10  1  0
 10 11  2  0
 10 12  1  0
 12 13  1  0
 13 14  4  0
 14 15  1  0
 14 16  4  0
 16 17  1  0
 16 18  4  0
 18 19  1  0
 18 20  4  0
 20 21  1  0
 20 22  4  0
 22 23  1  0
 12 24  1  0
  9 25  1  0
  9 26  1  0
  7 27  4  0
 27 28  4  0
 28 29  4  0
 29 30  1  0
  5 31  1  0
 31 32  1  0
 31 33  1  0
 31 34  1  0
  5 35  1  6
 29  6  4  0
 22 13  4  0
M  END
>  <sample_id>  (349)
train::CC(C)n1cnnc1SCC(=O)Nc1ccc(Br)cc1F__gen0000

>  <partition>  (349)
BAT_EXTERNAL_CONFIRM

>  <method>  (349)
BA_seed193

>  <candidate>  (349)
primary

$$$$
train::CC(C)n1cnnc1SCC(=O)Nc1ccc(Br)cc1F__gen0001
     RDKit          3D

 35 36  0  0  0  0  0  0  0  0999 V2000
    0.7300   -4.4652   -0.6405 C   0  0  0  0  0  0  0  0  0  0  0  0
    1.1533   -4.5688    0.3529 H   0  0  0  0  0  0  0  0  0  1  0  0
   -0.3132   -4.7838   -0.6073 H   0  0  0  0  0  0  0  0  0  2  0  0
    1.2721   -5.1191   -1.3105 H   0  0  0  0  0  0  0  0  0  3  0  0
    0.8396   -3.0195   -1.1245 C   0  0  1  0  0  0  0  0  0  4  0  0
    0.0295   -2.1575   -0.3051 N   0  0  0  0  0  0  0  0  0  5  0  0
   -0.9831   -1.3313   -0.7013 C   0  0  0  0  0  0  0  0  0  6  0  0
   -1.5096   -1.1752   -2.3502 S   0  0  0  0  0  0  0  0  0 11  0  0
   -2.0819    0.5599   -2.2559 C   0  0  0  0  0  0  0  0  0 12  0  0
   -0.9979    1.3355   -1.5352 C   0  0  0  0  0  0  0  0  0 13  0  0
    0.1447    1.3612   -1.9385 O   0  0  0  0  0  0  0  0  0 14  0  0
   -1.4418    1.9911   -0.4306 N   0  0  0  0  0  0  0  0  0 15  0  0
   -0.6841    2.6038    0.5550 C   0  0  0  0  0  0  0  0  0 16  0  0
    0.7051    2.7279    0.5237 C   0  0  0  0  0  0  0  0  0 17  0  0
    1.2460    2.3463   -0.3319 H   0  0  0  0  0  0  0  0  0 26  0  0
    1.3963    3.3143    1.5731 C   0  0  0  0  0  0  0  0  0 18  0  0
    2.4683    3.3924    1.5303 H   0  0  0  0  0  0  0  0  0 25  0  0
    0.6860    3.7974    2.6562 C   0  0  0  0  0  0  0  0  0 19  0  0
    1.6307    4.5863    4.0941 Br  0  0  0  0  0  0  0  0  0 24  0  0
   -0.6957    3.7047    2.7275 C   0  0  0  0  0  0  0  0  0 20  0  0
   -1.2497    4.0850    3.5698 H   0  0  0  0  0  0  0  0  0 23  0  0
   -1.3553    3.1149    1.6775 C   0  0  0  0  0  0  0  0  0 21  0  0
   -2.7048    3.0259    1.7106 F   0  0  0  0  0  0  0  0  0 22  0  0
   -2.4120    1.8551   -0.1592 H   0  0  0  0  0  0  0  0  0 27  0  0
   -2.1873    0.8915   -3.2870 H   0  0  0  0  0  0  0  0  0 28  0  0
   -3.0439    0.5803   -1.7358 H   0  0  0  0  0  0  0  0  0 29  0  0
   -1.4755   -0.6782    0.3174 N   0  0  0  0  0  0  0  0  0  7  0  0
   -0.7458   -1.0198    1.4049 N   0  0  0  0  0  0  0  0  0  8  0  0
    0.1163   -1.9078    1.0249 C   0  0  0  0  0  0  0  0  0  9  0  0
    0.8370   -2.3720    1.6773 H   0  0  0  0  0  0  0  0  0 10  0  0
    2.2835   -2.5308   -1.1310 C   0  0  0  0  0  0  0  0  0 30  0  0
    2.7217   -2.5949   -0.1432 H   0  0  0  0  0  0  0  0  0 31  0  0
    2.8734   -3.1231   -1.8153 H   0  0  0  0  0  0  0  0  0 32  0  0
    2.3273   -1.4874   -1.4494 H   0  0  0  0  0  0  0  0  0 33  0  0
    0.4207   -2.9393   -2.1429 H   0  0  0  0  0  0  0  0  0 34  0  0
  1  2  1  0
  1  3  1  0
  1  4  1  0
  1  5  1  0
  5  6  1  0
  6  7  4  0
  7  8  1  0
  8  9  1  0
  9 10  1  0
 10 11  2  0
 10 12  1  0
 12 13  1  0
 13 14  4  0
 14 15  1  0
 14 16  4  0
 16 17  1  0
 16 18  4  0
 18 19  1  0
 18 20  4  0
 20 21  1  0
 20 22  4  0
 22 23  1  0
 12 24  1  0
  9 25  1  0
  9 26  1  0
  7 27  4  0
 27 28  4  0
 28 29  4  0
 29 30  1  0
  5 31  1  0
 31 32  1  0
 31 33  1  0
 31 34  1  0
  5 35  1  6
 29  6  4  0
 22 13  4  0
M  END
>  <sample_id>  (350)
train::CC(C)n1cnnc1SCC(=O)Nc1ccc(Br)cc1F__gen0001

>  <partition>  (350)
BAT_EXTERNAL_CONFIRM

>  <method>  (350)
BA_seed193

>  <candidate>  (350)
primary

$$$$
train::CC(C)n1cnnc1SCC(=O)Nc1ccc(Br)cc1F__gen0002
     RDKit          3D

 35 36  0  0  0  0  0  0  0  0999 V2000
   -2.5349   -1.7999   -1.3578 C   0  0  0  0  0  0  0  0  0  0  0  0
   -2.1271   -1.9574   -2.3532 H   0  0  0  0  0  0  0  0  0  1  0  0
   -3.3606   -2.4905   -1.2090 H   0  0  0  0  0  0  0  0  0  2  0  0
   -1.7618   -2.0347   -0.6257 H   0  0  0  0  0  0  0  0  0  3  0  0
   -3.0158   -0.3607   -1.1904 C   0  0  1  0  0  0  0  0  0  4  0  0
   -1.8977    0.5236   -1.2928 N   0  0  0  0  0  0  0  0  0  5  0  0
   -1.2824    1.2278   -0.2973 C   0  0  0  0  0  0  0  0  0  6  0  0
   -1.8020    1.1872    1.3611 S   0  0  0  0  0  0  0  0  0 11  0  0
   -0.5476    2.3115    2.0680 C   0  0  0  0  0  0  0  0  0 12  0  0
    0.8892    1.8346    1.9828 C   0  0  0  0  0  0  0  0  0 13  0  0
    1.7902    2.6007    2.2232 O   0  0  0  0  0  0  0  0  0 14  0  0
    1.0428    0.5192    1.6821 N   0  0  0  0  0  0  0  0  0 15  0  0
    2.2212   -0.1715    1.3905 C   0  0  0  0  0  0  0  0  0 16  0  0
    3.4939    0.3764    1.5163 C   0  0  0  0  0  0  0  0  0 17  0  0
    3.5936    1.3952    1.8511 H   0  0  0  0  0  0  0  0  0 26  0  0
    4.6140   -0.3631    1.2069 C   0  0  0  0  0  0  0  0  0 18  0  0
    5.6024    0.0602    1.2966 H   0  0  0  0  0  0  0  0  0 25  0  0
    4.4735   -1.6775    0.7664 C   0  0  0  0  0  0  0  0  0 19  0  0
    6.0116   -2.7065    0.3484 Br  0  0  0  0  0  0  0  0  0 24  0  0
    3.2136   -2.2488    0.6232 C   0  0  0  0  0  0  0  0  0 20  0  0
    3.0881   -3.2641    0.2808 H   0  0  0  0  0  0  0  0  0 23  0  0
    2.1144   -1.4924    0.9468 C   0  0  0  0  0  0  0  0  0 21  0  0
    0.8797   -2.0149    0.8027 F   0  0  0  0  0  0  0  0  0 22  0  0
    0.2028   -0.0382    1.5444 H   0  0  0  0  0  0  0  0  0 27  0  0
   -0.8227    2.4422    3.1152 H   0  0  0  0  0  0  0  0  0 28  0  0
   -0.6174    3.2651    1.5595 H   0  0  0  0  0  0  0  0  0 29  0  0
   -0.2494    1.8981   -0.7475 N   0  0  0  0  0  0  0  0  0  7  0  0
   -0.1824    1.6442   -2.0564 N   0  0  0  0  0  0  0  0  0  8  0  0
   -1.1264    0.8419   -2.3776 C   0  0  0  0  0  0  0  0  0  9  0  0
   -1.3157    0.4713   -3.3633 H   0  0  0  0  0  0  0  0  0 10  0  0
   -4.0962   -0.0037   -2.1923 C   0  0  0  0  0  0  0  0  0 30  0  0
   -4.9687   -0.6165   -2.0299 H   0  0  0  0  0  0  0  0  0 31  0  0
   -3.7370   -0.1709   -3.2156 H   0  0  0  0  0  0  0  0  0 32  0  0
   -4.3815    1.0486   -2.0908 H   0  0  0  0  0  0  0  0  0 33  0  0
   -3.4036   -0.2362   -0.1662 H   0  0  0  0  0  0  0  0  0 34  0  0
  1  2  1  0
  1  3  1  0
  1  4  1  0
  1  5  1  0
  5  6  1  0
  6  7  4  0
  7  8  1  0
  8  9  1  0
  9 10  1  0
 10 11  2  0
 10 12  1  0
 12 13  1  0
 13 14  4  0
 14 15  1  0
 14 16  4  0
 16 17  1  0
 16 18  4  0
 18 19  1  0
 18 20  4  0
 20 21  1  0
 20 22  4  0
 22 23  1  0
 12 24  1  0
  9 25  1  0
  9 26  1  0
  7 27  4  0
 27 28  4  0
 28 29  4  0
 29 30  1  0
  5 31  1  0
 31 32  1  0
 31 33  1  0
 31 34  1  0
  5 35  1  1
 29  6  4  0
 22 13  4  0
M  END
>  <sample_id>  (351)
train::CC(C)n1cnnc1SCC(=O)Nc1ccc(Br)cc1F__gen0002

>  <partition>  (351)
BAT_EXTERNAL_CONFIRM

>  <method>  (351)
BA_seed193

>  <candidate>  (351)
primary

$$$$
train::CCC(C)c1ccccc1N1CC(C(=O)Nc2cc(S(=O)(=O)N3CCOCC3)ccc2OC)CC1=O__gen0000
     RDKit          3D

 69 72  0  0  0  0  0  0  0  0999 V2000
   -2.5743   -1.4094   -0.2034 C   0  0  0  0  0  0  0  0  0  0  0  0
   -2.7468   -1.9599   -1.1337 H   0  0  0  0  0  0  0  0  0  1  0  0
   -1.8371   -1.9407    0.3947 H   0  0  0  0  0  0  0  0  0  2  0  0
   -2.1048    0.0024   -0.4858 C   0  0  0  0  0  0  0  0  0  3  0  0
   -2.8721    0.5458   -1.0493 H   0  0  0  0  0  0  0  0  0  4  0  0
   -1.9503    0.5281    0.4602 H   0  0  0  0  0  0  0  0  0  5  0  0
   -0.7796    0.0235   -1.2684 C   0  0  1  0  0  0  0  0  0  6  0  0
   -0.9360   -0.6045   -2.6264 C   0  0  0  0  0  0  0  0  0  7  0  0
   -1.8423   -0.0638   -3.5345 C   0  0  0  0  0  0  0  0  0  8  0  0
   -2.4023    0.8160   -3.2490 H   0  0  0  0  0  0  0  0  0 62  0  0
   -2.0377   -0.6130   -4.7902 C   0  0  0  0  0  0  0  0  0  9  0  0
   -2.7432   -0.1629   -5.4739 H   0  0  0  0  0  0  0  0  0 61  0  0
   -1.3216   -1.7382   -5.1685 C   0  0  0  0  0  0  0  0  0 10  0  0
   -1.4538   -2.1696   -6.1474 H   0  0  0  0  0  0  0  0  0 60  0  0
   -0.4049   -2.2794   -4.2913 C   0  0  0  0  0  0  0  0  0 11  0  0
    0.1629   -3.1530   -4.5713 H   0  0  0  0  0  0  0  0  0 59  0  0
   -0.2209   -1.7385   -3.0249 C   0  0  0  0  0  0  0  0  0 12  0  0
    0.7329   -2.3506   -2.1657 N   0  0  0  0  0  0  0  0  0 13  0  0
    2.0783   -2.2321   -2.3383 C   0  0  0  0  0  0  0  0  0 14  0  0
    2.6407   -1.4471   -3.0569 O   0  0  0  0  0  0  0  0  0 15  0  0
    2.7226   -3.2491   -1.3930 C   0  0  0  0  0  0  0  0  0 16  0  0
    2.8913   -4.1857   -1.9428 H   0  0  0  0  0  0  0  0  0 17  0  0
    3.6822   -2.9157   -0.9971 H   0  0  0  0  0  0  0  0  0 58  0  0
    1.6468   -3.4607   -0.3288 C   0  0  1  0  0  0  0  0  0 18  0  0
    1.7392   -4.4192    0.1905 H   0  0  0  0  0  0  0  0  0 19  0  0
    1.5200   -2.3833    0.7602 C   0  0  0  0  0  0  0  0  0 20  0  0
    0.8327   -2.5560    1.7517 O   0  0  0  0  0  0  0  0  0 21  0  0
    2.1817   -1.2349    0.4911 N   0  0  0  0  0  0  0  0  0 22  0  0
    2.0973   -0.0081    1.1349 C   0  0  0  0  0  0  0  0  0 23  0  0
    1.4385    0.2106    2.3448 C   0  0  0  0  0  0  0  0  0 24  0  0
    0.9810   -0.6081    2.8731 H   0  0  0  0  0  0  0  0  0 53  0  0
    1.3894    1.4862    2.8779 C   0  0  0  0  0  0  0  0  0 25  0  0
    0.4146    1.7386    4.3532 S   0  0  2  0  0  6  0  0  0 36  0  0
    0.7086    3.0466    4.8738 O   0  0  0  0  0  0  0  0  0 37  0  0
    0.4948    0.5802    5.1940 O   0  0  0  0  0  0  0  0  0 38  0  0
   -1.1467    1.8231    3.7664 N   0  0  0  0  0  0  0  0  0 39  0  0
   -1.4036    2.8989    2.8470 C   0  0  0  0  0  0  0  0  0 40  0  0
   -0.9943    3.8079    3.2942 H   0  0  0  0  0  0  0  0  0 41  0  0
   -0.9243    2.7297    1.8814 H   0  0  0  0  0  0  0  0  0 52  0  0
   -2.9044    3.0334    2.6285 C   0  0  0  0  0  0  0  0  0 42  0  0
   -3.4027    3.3339    3.5664 H   0  0  0  0  0  0  0  0  0 43  0  0
   -3.1145    3.7745    1.8563 H   0  0  0  0  0  0  0  0  0 51  0  0
   -3.4534    1.8131    2.1755 O   0  0  0  0  0  0  0  0  0 44  0  0
   -3.2159    0.7811    3.1069 C   0  0  0  0  0  0  0  0  0 45  0  0
   -3.6816    1.0266    4.0791 H   0  0  0  0  0  0  0  0  0 46  0  0
   -3.7040   -0.1106    2.6920 H   0  0  0  0  0  0  0  0  0 50  0  0
   -1.7163    0.5792    3.3347 C   0  0  0  0  0  0  0  0  0 47  0  0
   -1.5357   -0.1782    4.0974 H   0  0  0  0  0  0  0  0  0 48  0  0
   -1.2723    0.2498    2.3885 H   0  0  0  0  0  0  0  0  0 49  0  0
    1.9826    2.5548    2.2289 C   0  0  0  0  0  0  0  0  0 26  0  0
    1.9153    3.5307    2.6724 H   0  0  0  0  0  0  0  0  0 35  0  0
    2.6390    2.3576    1.0239 C   0  0  0  0  0  0  0  0  0 27  0  0
    3.1113    3.1901    0.5333 H   0  0  0  0  0  0  0  0  0 34  0  0
    2.7043    1.0763    0.4687 C   0  0  0  0  0  0  0  0  0 28  0  0
    3.3064    0.7712   -0.7061 O   0  0  0  0  0  0  0  0  0 29  0  0
    3.8535    1.7998   -1.5037 C   0  0  0  0  0  0  0  0  0 30  0  0
    4.2116    1.3187   -2.4025 H   0  0  0  0  0  0  0  0  0 31  0  0
    4.6870    2.2967   -0.9949 H   0  0  0  0  0  0  0  0  0 32  0  0
    3.0919    2.5390   -1.7709 H   0  0  0  0  0  0  0  0  0 33  0  0
    2.7228   -1.1774   -0.3705 H   0  0  0  0  0  0  0  0  0 54  0  0
    0.3715   -3.3692   -1.1849 C   0  0  0  0  0  0  0  0  0 55  0  0
    0.1587   -4.3258   -1.6652 H   0  0  0  0  0  0  0  0  0 56  0  0
   -0.5052   -3.0523   -0.6110 H   0  0  0  0  0  0  0  0  0 57  0  0
   -0.1855    1.4285   -1.3858 C   0  0  0  0  0  0  0  0  0 63  0  0
   -0.0521    1.8580   -0.3918 H   0  0  0  0  0  0  0  0  0 64  0  0
   -0.8591    2.0809   -1.9393 H   0  0  0  0  0  0  0  0  0 65  0  0
    0.7699    1.3905   -1.8983 H   0  0  0  0  0  0  0  0  0 66  0  0
   -0.0802   -0.5402   -0.6431 H   0  0  0  0  0  0  0  0  0 67  0  0
   -3.5019   -1.3847    0.3670 H   0  0  0  0  0  0  0  0  0 68  0  0
  1  2  1  0
  1  3  1  0
  1  4  1  0
  4  5  1  0
  4  6  1  0
  4  7  1  0
  7  8  1  0
  8  9  4  0
  9 10  1  0
  9 11  4  0
 11 12  1  0
 11 13  4  0
 13 14  1  0
 13 15  4  0
 15 16  1  0
 15 17  4  0
 17 18  1  0
 18 19  1  0
 19 20  2  0
 19 21  1  0
 21 22  1  0
 21 23  1  0
 21 24  1  0
 24 25  1  6
 24 26  1  0
 26 27  2  0
 26 28  1  0
 28 29  1  0
 29 30  4  0
 30 31  1  0
 30 32  4  0
 33 32  1  1
 33 34  2  0
 33 35  2  0
 33 36  1  0
 36 37  1  0
 37 38  1  0
 37 39  1  0
 37 40  1  0
 40 41  1  0
 40 42  1  0
 40 43  1  0
 43 44  1  0
 44 45  1  0
 44 46  1  0
 44 47  1  0
 47 48  1  0
 47 49  1  0
 32 50  4  0
 50 51  1  0
 50 52  4  0
 52 53  1  0
 52 54  4  0
 54 55  1  0
 55 56  1  0
 56 57  1  0
 56 58  1  0
 56 59  1  0
 28 60  1  0
 24 61  1  0
 61 62  1  0
 61 63  1  0
  7 64  1  0
 64 65  1  0
 64 66  1  0
 64 67  1  0
  7 68  1  1
  1 69  1  0
 17  8  4  0
 61 18  1  0
 54 29  4  0
 47 36  1  0
M  END
>  <sample_id>  (352)
train::CCC(C)c1ccccc1N1CC(C(=O)Nc2cc(S(=O)(=O)N3CCOCC3)ccc2OC)CC1=O__gen0000

>  <partition>  (352)
BAT_EXTERNAL_CONFIRM

>  <method>  (352)
BA_seed193

>  <candidate>  (352)
primary

$$$$
train::CCC(C)c1ccccc1N1CC(C(=O)Nc2cc(S(=O)(=O)N3CCOCC3)ccc2OC)CC1=O__gen0001
     RDKit          3D

 69 72  0  0  0  0  0  0  0  0999 V2000
   -0.7515    1.2592    1.0942 C   0  0  0  0  0  0  0  0  0  0  0  0
    0.1279    0.6632    0.8576 H   0  0  0  0  0  0  0  0  0  1  0  0
   -1.2907    0.7431    1.9060 H   0  0  0  0  0  0  0  0  0  2  0  0
   -1.6438    1.4336   -0.1263 C   0  0  0  0  0  0  0  0  0  3  0  0
   -2.5080    2.0504    0.1519 H   0  0  0  0  0  0  0  0  0  4  0  0
   -2.0072    0.4556   -0.4366 H   0  0  0  0  0  0  0  0  0  5  0  0
   -0.8987    2.0760   -1.3103 C   0  0  1  0  0  0  0  0  0  6  0  0
   -1.8135    2.1017   -2.5023 C   0  0  0  0  0  0  0  0  0  7  0  0
   -2.7971    3.0771   -2.6010 C   0  0  0  0  0  0  0  0  0  8  0  0
   -2.8937    3.8174   -1.8070 H   0  0  0  0  0  0  0  0  0 62  0  0
   -3.6791    3.1236   -3.6613 C   0  0  0  0  0  0  0  0  0  9  0  0
   -4.4299    3.9075   -3.7212 H   0  0  0  0  0  0  0  0  0 61  0  0
   -3.5623    2.1997   -4.6899 C   0  0  0  0  0  0  0  0  0 10  0  0
   -4.2412    2.2324   -5.5324 H   0  0  0  0  0  0  0  0  0 60  0  0
   -2.6017    1.2170   -4.6098 C   0  0  0  0  0  0  0  0  0 11  0  0
   -2.5070    0.4746   -5.3910 H   0  0  0  0  0  0  0  0  0 59  0  0
   -1.7329    1.1537   -3.5316 C   0  0  0  0  0  0  0  0  0 12  0  0
   -0.7600    0.1232   -3.5104 N   0  0  0  0  0  0  0  0  0 13  0  0
   -1.0879   -1.1740   -3.7439 C   0  0  0  0  0  0  0  0  0 14  0  0
   -2.2014   -1.6602   -3.7492 O   0  0  0  0  0  0  0  0  0 15  0  0
    0.2197   -1.9279   -4.0017 C   0  0  0  0  0  0  0  0  0 16  0  0
    0.3655   -2.0118   -5.0774 H   0  0  0  0  0  0  0  0  0 17  0  0
    0.1839   -2.9308   -3.5825 H   0  0  0  0  0  0  0  0  0 58  0  0
    1.2919   -1.0374   -3.3815 C   0  0  2  0  0  0  0  0  0 18  0  0
    2.2653   -1.0795   -3.8488 H   0  0  0  0  0  0  0  0  0 19  0  0
    1.4966   -1.2652   -1.8663 C   0  0  0  0  0  0  0  0  0 20  0  0
    2.5886   -1.1171   -1.3486 O   0  0  0  0  0  0  0  0  0 21  0  0
    0.3930   -1.6703   -1.2196 N   0  0  0  0  0  0  0  0  0 22  0  0
    0.2263   -1.9422    0.1259 C   0  0  0  0  0  0  0  0  0 23  0  0
    1.2267   -1.8856    1.0806 C   0  0  0  0  0  0  0  0  0 24  0  0
    2.2404   -1.6635    0.8002 H   0  0  0  0  0  0  0  0  0 53  0  0
    0.9149   -2.1805    2.3945 C   0  0  0  0  0  0  0  0  0 25  0  0
    2.2406   -2.0356    3.5762 S   0  0  1  0  0  6  0  0  0 36  0  0
    1.6967   -2.2129    4.9108 O   0  0  0  0  0  0  0  0  0 37  0  0
    3.3390   -2.8782    3.1791 O   0  0  0  0  0  0  0  0  0 38  0  0
    2.6841   -0.4463    3.3238 N   0  0  0  0  0  0  0  0  0 39  0  0
    4.0804   -0.0872    3.4079 C   0  0  0  0  0  0  0  0  0 40  0  0
    4.6604   -0.9178    2.9869 H   0  0  0  0  0  0  0  0  0 41  0  0
    4.2475    0.7999    2.7987 H   0  0  0  0  0  0  0  0  0 52  0  0
    4.4635    0.1552    4.8733 C   0  0  0  0  0  0  0  0  0 42  0  0
    5.4850    0.5239    4.9632 H   0  0  0  0  0  0  0  0  0 43  0  0
    4.3435   -0.7835    5.4361 H   0  0  0  0  0  0  0  0  0 51  0  0
    3.6387    1.1628    5.4309 O   0  0  0  0  0  0  0  0  0 44  0  0
    2.2761    0.7835    5.3913 C   0  0  0  0  0  0  0  0  0 45  0  0
    2.1113   -0.1232    5.9828 H   0  0  0  0  0  0  0  0  0 46  0  0
    1.7360    1.6212    5.8481 H   0  0  0  0  0  0  0  0  0 50  0  0
    1.8246    0.5303    3.9522 C   0  0  0  0  0  0  0  0  0 47  0  0
    1.8447    1.4593    3.3782 H   0  0  0  0  0  0  0  0  0 48  0  0
    0.8160    0.1139    3.9365 H   0  0  0  0  0  0  0  0  0 49  0  0
   -0.3523   -2.5185    2.7896 C   0  0  0  0  0  0  0  0  0 26  0  0
   -0.5483   -2.7261    3.8268 H   0  0  0  0  0  0  0  0  0 35  0  0
   -1.3833   -2.5531    1.8472 C   0  0  0  0  0  0  0  0  0 27  0  0
   -2.3816   -2.8023    2.1623 H   0  0  0  0  0  0  0  0  0 34  0  0
   -1.0984   -2.2642    0.5243 C   0  0  0  0  0  0  0  0  0 28  0  0
   -1.9969   -2.2589   -0.4816 O   0  0  0  0  0  0  0  0  0 29  0  0
   -3.3689   -2.4993   -0.2153 C   0  0  0  0  0  0  0  0  0 30  0  0
   -3.7609   -1.7653    0.5013 H   0  0  0  0  0  0  0  0  0 31  0  0
   -3.8847   -2.3892   -1.1643 H   0  0  0  0  0  0  0  0  0 32  0  0
   -3.5199   -3.5115    0.1773 H   0  0  0  0  0  0  0  0  0 33  0  0
   -0.4770   -1.7732   -1.7318 H   0  0  0  0  0  0  0  0  0 54  0  0
    0.6705    0.3579   -3.6066 C   0  0  0  0  0  0  0  0  0 55  0  0
    0.9459    0.7450   -4.5910 H   0  0  0  0  0  0  0  0  0 56  0  0
    1.0000    1.0806   -2.8464 H   0  0  0  0  0  0  0  0  0 57  0  0
   -0.3576    3.4982   -0.9863 C   0  0  0  0  0  0  0  0  0 63  0  0
   -0.0130    3.9595   -1.9046 H   0  0  0  0  0  0  0  0  0 64  0  0
    0.4574    3.4254   -0.2776 H   0  0  0  0  0  0  0  0  0 65  0  0
   -1.1342    4.1046   -0.5471 H   0  0  0  0  0  0  0  0  0 66  0  0
   -0.0236    1.4542   -1.4949 H   0  0  0  0  0  0  0  0  0 67  0  0
   -0.3945    2.2083    1.4824 H   0  0  0  0  0  0  0  0  0 68  0  0
  1  2  1  0
  1  3  1  0
  1  4  1  0
  4  5  1  0
  4  6  1  0
  4  7  1  0
  7  8  1  0
  8  9  4  0
  9 10  1  0
  9 11  4  0
 11 12  1  0
 11 13  4  0
 13 14  1  0
 13 15  4  0
 15 16  1  0
 15 17  4  0
 17 18  1  0
 18 19  1  0
 19 20  2  0
 19 21  1  0
 21 22  1  0
 21 23  1  0
 21 24  1  0
 24 25  1  6
 24 26  1  0
 26 27  2  0
 26 28  1  0
 28 29  1  0
 29 30  4  0
 30 31  1  0
 30 32  4  0
 33 32  1  6
 33 34  2  0
 33 35  2  0
 33 36  1  0
 36 37  1  0
 37 38  1  0
 37 39  1  0
 37 40  1  0
 40 41  1  0
 40 42  1  0
 40 43  1  0
 43 44  1  0
 44 45  1  0
 44 46  1  0
 44 47  1  0
 47 48  1  0
 47 49  1  0
 32 50  4  0
 50 51  1  0
 50 52  4  0
 52 53  1  0
 52 54  4  0
 54 55  1  0
 55 56  1  0
 56 57  1  0
 56 58  1  0
 56 59  1  0
 28 60  1  0
 24 61  1  0
 61 62  1  0
 61 63  1  0
  7 64  1  0
 64 65  1  0
 64 66  1  0
 64 67  1  0
  7 68  1  6
  1 69  1  0
 17  8  4  0
 61 18  1  0
 54 29  4  0
 47 36  1  0
M  END
>  <sample_id>  (353)
train::CCC(C)c1ccccc1N1CC(C(=O)Nc2cc(S(=O)(=O)N3CCOCC3)ccc2OC)CC1=O__gen0001

>  <partition>  (353)
BAT_EXTERNAL_CONFIRM

>  <method>  (353)
BA_seed193

>  <candidate>  (353)
primary

$$$$
train::CCC(C)c1ccccc1N1CC(C(=O)Nc2cc(S(=O)(=O)N3CCOCC3)ccc2OC)CC1=O__gen0002
     RDKit          3D

 69 72  0  0  0  0  0  0  0  0999 V2000
   -0.9470   -3.0942    1.5508 C   0  0  0  0  0  0  0  0  0  0  0  0
   -0.7076   -3.2372    2.6068 H   0  0  0  0  0  0  0  0  0  1  0  0
   -0.2354   -2.4094    1.1294 H   0  0  0  0  0  0  0  0  0  2  0  0
   -2.3673   -2.6107    1.3472 C   0  0  0  0  0  0  0  0  0  3  0  0
   -3.0571   -3.3312    1.7742 H   0  0  0  0  0  0  0  0  0  4  0  0
   -2.5634   -2.5380    0.2831 H   0  0  0  0  0  0  0  0  0  5  0  0
   -2.6156   -1.2294    1.9699 C   0  0  1  0  0  0  0  0  0  6  0  0
   -3.8119   -0.5628    1.3410 C   0  0  0  0  0  0  0  0  0  7  0  0
   -4.9774   -1.2930    1.1745 C   0  0  0  0  0  0  0  0  0  8  0  0
   -5.0061   -2.3350    1.5039 H   0  0  0  0  0  0  0  0  0 62  0  0
   -6.1117   -0.7554    0.5893 C   0  0  0  0  0  0  0  0  0  9  0  0
   -6.9930   -1.3677    0.4481 H   0  0  0  0  0  0  0  0  0 61  0  0
   -6.0892    0.5538    0.1526 C   0  0  0  0  0  0  0  0  0 10  0  0
   -6.9614    0.9907   -0.3088 H   0  0  0  0  0  0  0  0  0 60  0  0
   -4.9529    1.3172    0.3217 C   0  0  0  0  0  0  0  0  0 11  0  0
   -4.9357    2.3502    0.0128 H   0  0  0  0  0  0  0  0  0 59  0  0
   -3.8124    0.7638    0.9156 C   0  0  0  0  0  0  0  0  0 12  0  0
   -2.6750    1.6120    1.0369 N   0  0  0  0  0  0  0  0  0 13  0  0
   -2.1154    1.9420    2.2412 C   0  0  0  0  0  0  0  0  0 14  0  0
   -2.3867    1.4923    3.3223 O   0  0  0  0  0  0  0  0  0 15  0  0
   -1.0756    3.0258    1.9704 C   0  0  0  0  0  0  0  0  0 16  0  0
   -1.4395    3.9761    2.3551 H   0  0  0  0  0  0  0  0  0 17  0  0
   -0.1412    2.7932    2.4865 H   0  0  0  0  0  0  0  0  0 58  0  0
   -0.9240    3.0627    0.4314 C   0  0  1  0  0  0  0  0  0 18  0  0
   -0.7532    4.0700    0.0770 H   0  0  0  0  0  0  0  0  0 19  0  0
    0.3065    2.2487    0.0266 C   0  0  0  0  0  0  0  0  0 20  0  0
    1.3539    2.7615   -0.3043 O   0  0  0  0  0  0  0  0  0 21  0  0
    0.1089    0.9020    0.0678 N   0  0  0  0  0  0  0  0  0 22  0  0
    1.0131   -0.0641   -0.3542 C   0  0  0  0  0  0  0  0  0 23  0  0
    2.3620   -0.0018   -0.0063 C   0  0  0  0  0  0  0  0  0 24  0  0
    2.7222    0.7799    0.6457 H   0  0  0  0  0  0  0  0  0 53  0  0
    3.2422   -0.9325   -0.5088 C   0  0  0  0  0  0  0  0  0 25  0  0
    4.9815   -0.7802   -0.0909 S   0  0  2  0  0  6  0  0  0 36  0  0
    5.6310   -2.0034   -0.4470 O   0  0  0  0  0  0  0  0  0 37  0  0
    5.0873   -0.2834    1.2412 O   0  0  0  0  0  0  0  0  0 38  0  0
    5.6314    0.4006   -1.0845 N   0  0  0  0  0  0  0  0  0 39  0  0
    5.3765    1.7868   -0.8051 C   0  0  0  0  0  0  0  0  0 40  0  0
    5.1042    1.8688    0.2588 H   0  0  0  0  0  0  0  0  0 41  0  0
    6.2878    2.3403   -0.9847 H   0  0  0  0  0  0  0  0  0 52  0  0
    4.2451    2.3305   -1.6665 C   0  0  0  0  0  0  0  0  0 42  0  0
    3.2746    1.9137   -1.3574 H   0  0  0  0  0  0  0  0  0 43  0  0
    4.2008    3.4321   -1.5767 H   0  0  0  0  0  0  0  0  0 51  0  0
    4.4665    2.0940   -3.0332 O   0  0  0  0  0  0  0  0  0 44  0  0
    4.6021    0.6948   -3.2941 C   0  0  0  0  0  0  0  0  0 45  0  0
    3.6455    0.1981   -3.0309 H   0  0  0  0  0  0  0  0  0 46  0  0
    4.7647    0.6039   -4.3661 H   0  0  0  0  0  0  0  0  0 50  0  0
    5.7715    0.1081   -2.4896 C   0  0  0  0  0  0  0  0  0 47  0  0
    5.7765   -0.9926   -2.6011 H   0  0  0  0  0  0  0  0  0 48  0  0
    6.6962    0.5132   -2.8406 H   0  0  0  0  0  0  0  0  0 49  0  0
    2.8068   -1.9722   -1.3171 C   0  0  0  0  0  0  0  0  0 26  0  0
    3.5347   -2.6937   -1.6541 H   0  0  0  0  0  0  0  0  0 35  0  0
    1.4795   -2.0658   -1.6716 C   0  0  0  0  0  0  0  0  0 27  0  0
    1.1383   -2.8701   -2.2738 H   0  0  0  0  0  0  0  0  0 34  0  0
    0.5678   -1.1180   -1.1853 C   0  0  0  0  0  0  0  0  0 28  0  0
   -0.7568   -1.0710   -1.4692 O   0  0  0  0  0  0  0  0  0 29  0  0
   -1.3343   -2.1419   -2.2320 C   0  0  0  0  0  0  0  0  0 30  0  0
   -2.3855   -1.8918   -2.2990 H   0  0  0  0  0  0  0  0  0 31  0  0
   -1.1873   -3.0840   -1.7445 H   0  0  0  0  0  0  0  0  0 32  0  0
   -0.9040   -2.1562   -3.2371 H   0  0  0  0  0  0  0  0  0 33  0  0
   -0.8233    0.5496    0.2847 H   0  0  0  0  0  0  0  0  0 54  0  0
   -2.2434    2.4371   -0.0409 C   0  0  0  0  0  0  0  0  0 55  0  0
   -2.9657    3.2457   -0.2408 H   0  0  0  0  0  0  0  0  0 56  0  0
   -2.1091    1.8787   -0.9732 H   0  0  0  0  0  0  0  0  0 57  0  0
   -2.7882   -1.3330    3.4909 C   0  0  0  0  0  0  0  0  0 63  0  0
   -1.8507   -1.6646    3.9583 H   0  0  0  0  0  0  0  0  0 64  0  0
   -3.5552   -2.0803    3.7257 H   0  0  0  0  0  0  0  0  0 65  0  0
   -3.0815   -0.3935    3.9218 H   0  0  0  0  0  0  0  0  0 66  0  0
   -1.7287   -0.6249    1.7658 H   0  0  0  0  0  0  0  0  0 67  0  0
   -0.8097   -4.0546    1.0601 H   0  0  0  0  0  0  0  0  0 68  0  0
  1  2  1  0
  1  3  1  0
  1  4  1  0
  4  5  1  0
  4  6  1  0
  4  7  1  0
  7  8  1  0
  8  9  4  0
  9 10  1  0
  9 11  4  0
 11 12  1  0
 11 13  4  0
 13 14  1  0
 13 15  4  0
 15 16  1  0
 15 17  4  0
 17 18  1  0
 18 19  1  0
 19 20  2  0
 19 21  1  0
 21 22  1  0
 21 23  1  0
 21 24  1  0
 24 25  1  1
 24 26  1  0
 26 27  2  0
 26 28  1  0
 28 29  1  0
 29 30  4  0
 30 31  1  0
 30 32  4  0
 33 32  1  1
 33 34  2  0
 33 35  2  0
 33 36  1  0
 36 37  1  0
 37 38  1  0
 37 39  1  0
 37 40  1  0
 40 41  1  0
 40 42  1  0
 40 43  1  0
 43 44  1  0
 44 45  1  0
 44 46  1  0
 44 47  1  0
 47 48  1  0
 47 49  1  0
 32 50  4  0
 50 51  1  0
 50 52  4  0
 52 53  1  0
 52 54  4  0
 54 55  1  0
 55 56  1  0
 56 57  1  0
 56 58  1  0
 56 59  1  0
 28 60  1  0
 24 61  1  0
 61 62  1  0
 61 63  1  0
  7 64  1  0
 64 65  1  0
 64 66  1  0
 64 67  1  0
  7 68  1  1
  1 69  1  0
 17  8  4  0
 61 18  1  0
 54 29  4  0
 47 36  1  0
M  END
>  <sample_id>  (354)
train::CCC(C)c1ccccc1N1CC(C(=O)Nc2cc(S(=O)(=O)N3CCOCC3)ccc2OC)CC1=O__gen0002

>  <partition>  (354)
BAT_EXTERNAL_CONFIRM

>  <method>  (354)
BA_seed193

>  <candidate>  (354)
primary

$$$$
train::Cc1cc(NC(=O)CSc2nnc(COc3cccc(C)c3C)n2C)no1__gen0000
     RDKit          3D

 48 50  0  0  0  0  0  0  0  0999 V2000
    8.3180    1.1465   -1.3171 C   0  0  0  0  0  0  0  0  0  0  0  0
    6.9211    0.9567   -0.8268 C   0  0  0  0  0  0  0  0  0  1  0  0
    6.3463   -0.0192   -0.0764 C   0  0  0  0  0  0  0  0  0  2  0  0
    6.7680   -0.9027    0.3573 H   0  0  0  0  0  0  0  0  0 44  0  0
    4.9919    0.4016    0.0204 C   0  0  0  0  0  0  0  0  0  3  0  0
    3.9374   -0.1956    0.6823 N   0  0  0  0  0  0  0  0  0  6  0  0
    3.9926   -1.4033    1.2996 C   0  0  0  0  0  0  0  0  0  7  0  0
    4.9786   -2.1051    1.3936 O   0  0  0  0  0  0  0  0  0  8  0  0
    2.6449   -1.8103    1.9135 C   0  0  0  0  0  0  0  0  0  9  0  0
    2.1828   -0.9877    2.4481 H   0  0  0  0  0  0  0  0  0 10  0  0
    2.8137   -2.6681    2.5653 H   0  0  0  0  0  0  0  0  0 11  0  0
    1.4839   -2.3791    0.6429 S   0  0  0  0  0  0  0  0  0 12  0  0
    0.7929   -0.8500    0.1761 C   0  0  0  0  0  0  0  0  0 13  0  0
    1.1953    0.3347    0.5712 N   0  0  0  0  0  0  0  0  0 14  0  0
    0.3973    1.2565   -0.0164 N   0  0  0  0  0  0  0  0  0 15  0  0
   -0.4649    0.6070   -0.7612 C   0  0  0  0  0  0  0  0  0 16  0  0
   -1.5140    1.2684   -1.5973 C   0  0  0  0  0  0  0  0  0 22  0  0
   -2.7882    0.6951   -1.4735 O   0  0  0  0  0  0  0  0  0 23  0  0
   -3.4441    0.7833   -0.2666 C   0  0  0  0  0  0  0  0  0 24  0  0
   -2.9361    1.4380    0.8492 C   0  0  0  0  0  0  0  0  0 25  0  0
   -1.9654    1.9226    0.8210 H   0  0  0  0  0  0  0  0  0 40  0  0
   -3.6829    1.4817    2.0177 C   0  0  0  0  0  0  0  0  0 26  0  0
   -3.2837    1.9941    2.8791 H   0  0  0  0  0  0  0  0  0 39  0  0
   -4.9128    0.8701    2.0787 C   0  0  0  0  0  0  0  0  0 27  0  0
   -5.4854    0.9074    2.9893 H   0  0  0  0  0  0  0  0  0 38  0  0
   -5.4334    0.2084    0.9728 C   0  0  0  0  0  0  0  0  0 28  0  0
   -6.7751   -0.4489    1.0577 C   0  0  0  0  0  0  0  0  0 34  0  0
   -7.2066   -0.3455    2.0502 H   0  0  0  0  0  0  0  0  0 35  0  0
   -6.6975   -1.5166    0.8282 H   0  0  0  0  0  0  0  0  0 36  0  0
   -7.4697   -0.0028    0.3275 H   0  0  0  0  0  0  0  0  0 37  0  0
   -4.6987    0.1574   -0.2128 C   0  0  0  0  0  0  0  0  0 29  0  0
   -5.2476   -0.5511   -1.4223 C   0  0  0  0  0  0  0  0  0 30  0  0
   -5.3709   -1.6202   -1.2054 H   0  0  0  0  0  0  0  0  0 31  0  0
   -6.2213   -0.1539   -1.6956 H   0  0  0  0  0  0  0  0  0 32  0  0
   -4.5599   -0.4383   -2.2579 H   0  0  0  0  0  0  0  0  0 33  0  0
   -1.2556    1.1699   -2.6555 H   0  0  0  0  0  0  0  0  0 41  0  0
   -1.5204    2.3405   -1.3366 H   0  0  0  0  0  0  0  0  0 42  0  0
   -0.2585   -0.7336   -0.6673 N   0  0  0  0  0  0  0  0  0 17  0  0
   -0.9650   -1.8194   -1.3078 C   0  0  0  0  0  0  0  0  0 18  0  0
   -1.9191   -1.4449   -1.6904 H   0  0  0  0  0  0  0  0  0 19  0  0
   -1.1423   -2.6102   -0.5868 H   0  0  0  0  0  0  0  0  0 20  0  0
   -0.3720   -2.2186   -2.1351 H   0  0  0  0  0  0  0  0  0 21  0  0
    3.0362    0.2964    0.6633 H   0  0  0  0  0  0  0  0  0 43  0  0
    4.8085    1.5185   -0.6164 N   0  0  0  0  0  0  0  0  0  4  0  0
    6.0035    1.8815   -1.1571 O   0  0  0  0  0  0  0  0  0  5  0  0
    8.7161    2.0835   -0.9331 H   0  0  0  0  0  0  0  0  0 45  0  0
    8.9372    0.3143   -0.9859 H   0  0  0  0  0  0  0  0  0 46  0  0
    8.3250    1.1909   -2.4038 H   0  0  0  0  0  0  0  0  0 47  0  0
  1  2  1  0
  2  3  4  0
  3  4  1  0
  3  5  4  0
  5  6  1  0
  6  7  1  0
  7  8  2  0
  7  9  1  0
  9 10  1  0
  9 11  1  0
  9 12  1  0
 12 13  1  0
 13 14  4  0
 14 15  4  0
 15 16  4  0
 16 17  1  0
 17 18  1  0
 18 19  1  0
 19 20  4  0
 20 21  1  0
 20 22  4  0
 22 23  1  0
 22 24  4  0
 24 25  1  0
 24 26  4  0
 26 27  1  0
 27 28  1  0
 27 29  1  0
 27 30  1  0
 26 31  4  0
 31 32  1  0
 32 33  1  0
 32 34  1  0
 32 35  1  0
 17 36  1  0
 17 37  1  0
 16 38  4  0
 38 39  1  0
 39 40  1  0
 39 41  1  0
 39 42  1  0
  6 43  1  0
  5 44  4  0
 44 45  4  0
  1 46  1  0
  1 47  1  0
  1 48  1  0
 45  2  4  0
 38 13  4  0
 31 19  4  0
M  END
>  <sample_id>  (355)
train::Cc1cc(NC(=O)CSc2nnc(COc3cccc(C)c3C)n2C)no1__gen0000

>  <partition>  (355)
BAT_EXTERNAL_CONFIRM

>  <method>  (355)
BA_seed193

>  <candidate>  (355)
primary

$$$$
train::Cc1cc(NC(=O)CSc2nnc(COc3cccc(C)c3C)n2C)no1__gen0001
     RDKit          3D

 48 50  0  0  0  0  0  0  0  0999 V2000
   -3.1336    0.1007    2.0812 C   0  0  0  0  0  0  0  0  0  0  0  0
   -1.7561    0.6528    2.0328 C   0  0  0  0  0  0  0  0  0  1  0  0
   -0.5247    0.0773    2.2118 C   0  0  0  0  0  0  0  0  0  2  0  0
   -0.2735   -0.9502    2.3921 H   0  0  0  0  0  0  0  0  0 44  0  0
    0.3675    1.1784    2.1352 C   0  0  0  0  0  0  0  0  0  3  0  0
    1.7336    1.1979    2.3064 N   0  0  0  0  0  0  0  0  0  6  0  0
    2.4783    0.1306    2.7122 C   0  0  0  0  0  0  0  0  0  7  0  0
    2.0146   -0.9815    2.8865 O   0  0  0  0  0  0  0  0  0  8  0  0
    3.9427    0.4240    2.8956 C   0  0  0  0  0  0  0  0  0  9  0  0
    4.1965    1.4788    2.8122 H   0  0  0  0  0  0  0  0  0 10  0  0
    4.3066    0.0066    3.8306 H   0  0  0  0  0  0  0  0  0 11  0  0
    4.8347   -0.4785    1.5718 S   0  0  0  0  0  0  0  0  0 12  0  0
    3.8558    0.1270    0.2607 C   0  0  0  0  0  0  0  0  0 13  0  0
    3.6391    1.3864    0.0143 N   0  0  0  0  0  0  0  0  0 14  0  0
    2.8080    1.4644   -1.0232 N   0  0  0  0  0  0  0  0  0 15  0  0
    2.5332    0.2486   -1.4080 C   0  0  0  0  0  0  0  0  0 16  0  0
    1.6178   -0.1216   -2.5297 C   0  0  0  0  0  0  0  0  0 22  0  0
    0.4597   -0.7642   -2.0823 O   0  0  0  0  0  0  0  0  0 23  0  0
   -0.6365    0.0077   -1.7469 C   0  0  0  0  0  0  0  0  0 24  0  0
   -0.5564    1.3715   -1.4659 C   0  0  0  0  0  0  0  0  0 25  0  0
    0.3985    1.8833   -1.4710 H   0  0  0  0  0  0  0  0  0 40  0  0
   -1.7060    2.0907   -1.1917 C   0  0  0  0  0  0  0  0  0 26  0  0
   -1.6327    3.1465   -0.9906 H   0  0  0  0  0  0  0  0  0 39  0  0
   -2.9282    1.4555   -1.1832 C   0  0  0  0  0  0  0  0  0 27  0  0
   -3.8293    2.0167   -0.9851 H   0  0  0  0  0  0  0  0  0 38  0  0
   -3.0151    0.0845   -1.4223 C   0  0  0  0  0  0  0  0  0 28  0  0
   -4.3606   -0.5986   -1.3721 C   0  0  0  0  0  0  0  0  0 34  0  0
   -4.5827   -1.0553   -2.3340 H   0  0  0  0  0  0  0  0  0 35  0  0
   -4.3525   -1.3871   -0.6206 H   0  0  0  0  0  0  0  0  0 36  0  0
   -5.1399    0.1122   -1.1345 H   0  0  0  0  0  0  0  0  0 37  0  0
   -1.8627   -0.6590   -1.6831 C   0  0  0  0  0  0  0  0  0 29  0  0
   -1.9349   -2.1320   -1.9261 C   0  0  0  0  0  0  0  0  0 30  0  0
   -0.9747   -2.5088   -2.2596 H   0  0  0  0  0  0  0  0  0 31  0  0
   -2.7002   -2.3757   -2.6631 H   0  0  0  0  0  0  0  0  0 32  0  0
   -2.2110   -2.6470   -1.0128 H   0  0  0  0  0  0  0  0  0 33  0  0
    2.1454   -0.8388   -3.1758 H   0  0  0  0  0  0  0  0  0 41  0  0
    1.3929    0.7772   -3.1144 H   0  0  0  0  0  0  0  0  0 42  0  0
    3.1589   -0.6650   -0.6214 N   0  0  0  0  0  0  0  0  0 17  0  0
    3.0979   -2.0881   -0.6952 C   0  0  0  0  0  0  0  0  0 18  0  0
    3.5301   -2.4374   -1.6374 H   0  0  0  0  0  0  0  0  0 19  0  0
    2.0623   -2.4142   -0.6129 H   0  0  0  0  0  0  0  0  0 20  0  0
    3.6656   -2.5030    0.1455 H   0  0  0  0  0  0  0  0  0 21  0  0
    2.1881    2.0610    2.0630 H   0  0  0  0  0  0  0  0  0 43  0  0
   -0.2943    2.2847    1.8882 N   0  0  0  0  0  0  0  0  0  4  0  0
   -1.6040    1.9672    1.8511 O   0  0  0  0  0  0  0  0  0  5  0  0
   -3.6678    0.4642    2.9508 H   0  0  0  0  0  0  0  0  0 45  0  0
   -3.0781   -0.9856    2.1329 H   0  0  0  0  0  0  0  0  0 46  0  0
   -3.6723    0.3954    1.1881 H   0  0  0  0  0  0  0  0  0 47  0  0
  1  2  1  0
  2  3  4  0
  3  4  1  0
  3  5  4  0
  5  6  1  0
  6  7  1  0
  7  8  2  0
  7  9  1  0
  9 10  1  0
  9 11  1  0
  9 12  1  0
 12 13  1  0
 13 14  4  0
 14 15  4  0
 15 16  4  0
 16 17  1  0
 17 18  1  0
 18 19  1  0
 19 20  4  0
 20 21  1  0
 20 22  4  0
 22 23  1  0
 22 24  4  0
 24 25  1  0
 24 26  4  0
 26 27  1  0
 27 28  1  0
 27 29  1  0
 27 30  1  0
 26 31  4  0
 31 32  1  0
 32 33  1  0
 32 34  1  0
 32 35  1  0
 17 36  1  0
 17 37  1  0
 16 38  4  0
 38 39  1  0
 39 40  1  0
 39 41  1  0
 39 42  1  0
  6 43  1  0
  5 44  4  0
 44 45  4  0
  1 46  1  0
  1 47  1  0
  1 48  1  0
 45  2  4  0
 38 13  4  0
 31 19  4  0
M  END
>  <sample_id>  (356)
train::Cc1cc(NC(=O)CSc2nnc(COc3cccc(C)c3C)n2C)no1__gen0001

>  <partition>  (356)
BAT_EXTERNAL_CONFIRM

>  <method>  (356)
BA_seed193

>  <candidate>  (356)
primary

$$$$
train::Cc1cc(NC(=O)CSc2nnc(COc3cccc(C)c3C)n2C)no1__gen0002
     RDKit          3D

 48 50  0  0  0  0  0  0  0  0999 V2000
   -4.8786   -2.1564    0.3587 C   0  0  0  0  0  0  0  0  0  0  0  0
   -3.4281   -2.0123    0.5861 C   0  0  0  0  0  0  0  0  0  1  0  0
   -2.6547   -2.1200    1.7004 C   0  0  0  0  0  0  0  0  0  2  0  0
   -2.9402   -2.3392    2.7126 H   0  0  0  0  0  0  0  0  0 44  0  0
   -1.3350   -1.8512    1.2322 C   0  0  0  0  0  0  0  0  0  3  0  0
   -0.1532   -1.8183    1.9398 N   0  0  0  0  0  0  0  0  0  6  0  0
   -0.0523   -1.8648    3.2878 C   0  0  0  0  0  0  0  0  0  7  0  0
   -0.9766   -2.0295    4.0562 O   0  0  0  0  0  0  0  0  0  8  0  0
    1.3840   -1.6694    3.7747 C   0  0  0  0  0  0  0  0  0  9  0  0
    1.4489   -2.0059    4.8136 H   0  0  0  0  0  0  0  0  0 10  0  0
    2.1012   -2.2111    3.1540 H   0  0  0  0  0  0  0  0  0 11  0  0
    1.8359    0.0808    3.7915 S   0  0  0  0  0  0  0  0  0 12  0  0
    2.2704    0.2696    2.1102 C   0  0  0  0  0  0  0  0  0 13  0  0
    2.3085   -0.6957    1.2209 N   0  0  0  0  0  0  0  0  0 14  0  0
    2.6494   -0.1438    0.0571 N   0  0  0  0  0  0  0  0  0 15  0  0
    2.8093    1.1459    0.2348 C   0  0  0  0  0  0  0  0  0 16  0  0
    3.1137    2.1000   -0.8732 C   0  0  0  0  0  0  0  0  0 22  0  0
    2.3634    1.8140   -2.0198 O   0  0  0  0  0  0  0  0  0 23  0  0
    1.0072    1.5883   -1.8562 C   0  0  0  0  0  0  0  0  0 24  0  0
    0.2442    2.2365   -0.8931 C   0  0  0  0  0  0  0  0  0 25  0  0
    0.6941    2.9268   -0.2044 H   0  0  0  0  0  0  0  0  0 40  0  0
   -1.1192    1.9973   -0.8239 C   0  0  0  0  0  0  0  0  0 26  0  0
   -1.7098    2.4827   -0.0691 H   0  0  0  0  0  0  0  0  0 39  0  0
   -1.7203    1.1173   -1.7012 C   0  0  0  0  0  0  0  0  0 27  0  0
   -2.7767    0.9127   -1.6463 H   0  0  0  0  0  0  0  0  0 38  0  0
   -0.9594    0.4505   -2.6537 C   0  0  0  0  0  0  0  0  0 28  0  0
   -1.6209   -0.5503   -3.5573 C   0  0  0  0  0  0  0  0  0 34  0  0
   -1.2859   -0.4458   -4.5882 H   0  0  0  0  0  0  0  0  0 35  0  0
   -2.7018   -0.4312   -3.5336 H   0  0  0  0  0  0  0  0  0 36  0  0
   -1.3825   -1.5488   -3.2142 H   0  0  0  0  0  0  0  0  0 37  0  0
    0.4155    0.6835   -2.7426 C   0  0  0  0  0  0  0  0  0 29  0  0
    1.2511   -0.0523   -3.7466 C   0  0  0  0  0  0  0  0  0 30  0  0
    1.1204   -1.1253   -3.6326 H   0  0  0  0  0  0  0  0  0 31  0  0
    0.9592    0.2249   -4.7611 H   0  0  0  0  0  0  0  0  0 32  0  0
    2.2996    0.1950   -3.6031 H   0  0  0  0  0  0  0  0  0 33  0  0
    2.9535    3.1362   -0.5439 H   0  0  0  0  0  0  0  0  0 41  0  0
    4.1612    1.9990   -1.1866 H   0  0  0  0  0  0  0  0  0 42  0  0
    2.5876    1.4588    1.5481 N   0  0  0  0  0  0  0  0  0 17  0  0
    2.6720    2.7098    2.2381 C   0  0  0  0  0  0  0  0  0 18  0  0
    3.5484    2.7174    2.8910 H   0  0  0  0  0  0  0  0  0 19  0  0
    2.7651    3.5302    1.5261 H   0  0  0  0  0  0  0  0  0 20  0  0
    1.7825    2.8572    2.8535 H   0  0  0  0  0  0  0  0  0 21  0  0
    0.6859   -1.6592    1.3842 H   0  0  0  0  0  0  0  0  0 43  0  0
   -1.3517   -1.6145   -0.0608 N   0  0  0  0  0  0  0  0  0  4  0  0
   -2.6462   -1.7116   -0.4546 O   0  0  0  0  0  0  0  0  0  5  0  0
   -5.3403   -1.1736    0.2294 H   0  0  0  0  0  0  0  0  0 45  0  0
   -5.3391   -2.6598    1.2111 H   0  0  0  0  0  0  0  0  0 46  0  0
   -5.0600   -2.7443   -0.5462 H   0  0  0  0  0  0  0  0  0 47  0  0
  1  2  1  0
  2  3  4  0
  3  4  1  0
  3  5  4  0
  5  6  1  0
  6  7  1  0
  7  8  2  0
  7  9  1  0
  9 10  1  0
  9 11  1  0
  9 12  1  0
 12 13  1  0
 13 14  4  0
 14 15  4  0
 15 16  4  0
 16 17  1  0
 17 18  1  0
 18 19  1  0
 19 20  4  0
 20 21  1  0
 20 22  4  0
 22 23  1  0
 22 24  4  0
 24 25  1  0
 24 26  4  0
 26 27  1  0
 27 28  1  0
 27 29  1  0
 27 30  1  0
 26 31  4  0
 31 32  1  0
 32 33  1  0
 32 34  1  0
 32 35  1  0
 17 36  1  0
 17 37  1  0
 16 38  4  0
 38 39  1  0
 39 40  1  0
 39 41  1  0
 39 42  1  0
  6 43  1  0
  5 44  4  0
 44 45  4  0
  1 46  1  0
  1 47  1  0
  1 48  1  0
 45  2  4  0
 38 13  4  0
 31 19  4  0
M  END
>  <sample_id>  (357)
train::Cc1cc(NC(=O)CSc2nnc(COc3cccc(C)c3C)n2C)no1__gen0002

>  <partition>  (357)
BAT_EXTERNAL_CONFIRM

>  <method>  (357)
BA_seed193

>  <candidate>  (357)
primary

$$$$
train::CCOC(=O)CNC(=O)C(CO)NC(=O)OCc1ccccc1__gen0000
     RDKit          3D

 43 43  0  0  0  0  0  0  0  0999 V2000
   -2.7681   -3.5957    0.7988 C   0  0  0  0  0  0  0  0  0  0  0  0
   -1.2673   -3.7125    0.6789 C   0  0  0  0  0  0  0  0  0  1  0  0
   -0.9221   -3.3690   -0.3001 H   0  0  0  0  0  0  0  0  0  2  0  0
   -0.9392   -4.7522    0.8263 H   0  0  0  0  0  0  0  0  0  3  0  0
   -0.5922   -2.9684    1.7128 O   0  0  0  0  0  0  0  0  0  4  0  0
   -0.4016   -1.6685    1.4672 C   0  0  0  0  0  0  0  0  0  5  0  0
   -0.6833   -1.1026    0.4471 O   0  0  0  0  0  0  0  0  0  6  0  0
    0.2913   -1.0018    2.6462 C   0  0  0  0  0  0  0  0  0  7  0  0
    0.2406    0.4371    2.5079 N   0  0  0  0  0  0  0  0  0  8  0  0
   -0.9501    1.0591    2.4956 C   0  0  0  0  0  0  0  0  0  9  0  0
   -1.9932    0.5421    2.8653 O   0  0  0  0  0  0  0  0  0 10  0  0
   -0.8629    2.4894    1.9374 C   0  0  1  0  0  0  0  0  0 11  0  0
   -0.6229    2.4475    0.5173 N   0  0  0  0  0  0  0  0  0 12  0  0
    0.6071    2.2835   -0.0209 C   0  0  0  0  0  0  0  0  0 13  0  0
    1.5967    2.0940    0.6477 O   0  0  0  0  0  0  0  0  0 14  0  0
    0.5757    2.3723   -1.3498 O   0  0  0  0  0  0  0  0  0 15  0  0
    1.8173    2.1838   -2.0397 C   0  0  0  0  0  0  0  0  0 16  0  0
    1.9799    0.8083   -2.6051 C   0  0  0  0  0  0  0  0  0 17  0  0
    2.8305    0.6148   -3.6890 C   0  0  0  0  0  0  0  0  0 18  0  0
    3.3548    1.4627   -4.1081 H   0  0  0  0  0  0  0  0  0 27  0  0
    3.0395   -0.6478   -4.2089 C   0  0  0  0  0  0  0  0  0 19  0  0
    3.7025   -0.7899   -5.0454 H   0  0  0  0  0  0  0  0  0 26  0  0
    2.3832   -1.7347   -3.6602 C   0  0  0  0  0  0  0  0  0 20  0  0
    2.5296   -2.7295   -4.0641 H   0  0  0  0  0  0  0  0  0 25  0  0
    1.5130   -1.5490   -2.5969 C   0  0  0  0  0  0  0  0  0 21  0  0
    1.0031   -2.3949   -2.1463 H   0  0  0  0  0  0  0  0  0 24  0  0
    1.3183   -0.2887   -2.0659 C   0  0  0  0  0  0  0  0  0 22  0  0
    0.6571   -0.1579   -1.2323 H   0  0  0  0  0  0  0  0  0 23  0  0
    1.8226    2.9327   -2.8439 H   0  0  0  0  0  0  0  0  0 28  0  0
    2.6272    2.4043   -1.3328 H   0  0  0  0  0  0  0  0  0 29  0  0
   -1.4166    2.5158   -0.1176 H   0  0  0  0  0  0  0  0  0 30  0  0
   -0.0069    2.9906    2.4075 H   0  0  0  0  0  0  0  0  0 31  0  0
   -2.1611    3.2601    2.2104 C   0  0  0  0  0  0  0  0  0 32  0  0
   -3.2550    2.7034    1.5456 O   0  0  0  0  0  0  0  0  0 33  0  0
   -3.3225    1.7753    1.8565 H   0  0  0  0  0  0  0  0  0 34  0  0
   -2.3479    3.2735    3.2925 H   0  0  0  0  0  0  0  0  0 35  0  0
   -2.0604    4.2818    1.8387 H   0  0  0  0  0  0  0  0  0 36  0  0
    0.9903    0.8817    1.9867 H   0  0  0  0  0  0  0  0  0 37  0  0
    1.3303   -1.3261    2.6790 H   0  0  0  0  0  0  0  0  0 38  0  0
   -0.2073   -1.3090    3.5617 H   0  0  0  0  0  0  0  0  0 39  0  0
   -3.0814   -2.5640    0.6695 H   0  0  0  0  0  0  0  0  0 40  0  0
   -3.0955   -3.9374    1.7844 H   0  0  0  0  0  0  0  0  0 41  0  0
   -3.2530   -4.2140    0.0461 H   0  0  0  0  0  0  0  0  0 42  0  0
  1  2  1  0
  2  3  1  0
  2  4  1  0
  2  5  1  0
  5  6  1  0
  6  7  2  0
  6  8  1  0
  8  9  1  0
  9 10  1  0
 10 11  2  0
 10 12  1  0
 12 13  1  0
 13 14  1  0
 14 15  2  0
 14 16  1  0
 16 17  1  0
 17 18  1  0
 18 19  4  0
 19 20  1  0
 19 21  4  0
 21 22  1  0
 21 23  4  0
 23 24  1  0
 23 25  4  0
 25 26  1  0
 25 27  4  0
 27 28  1  0
 17 29  1  0
 17 30  1  0
 13 31  1  0
 12 32  1  1
 12 33  1  0
 33 34  1  0
 34 35  1  0
 33 36  1  0
 33 37  1  0
  9 38  1  0
  8 39  1  0
  8 40  1  0
  1 41  1  0
  1 42  1  0
  1 43  1  0
 27 18  4  0
M  END
>  <sample_id>  (358)
train::CCOC(=O)CNC(=O)C(CO)NC(=O)OCc1ccccc1__gen0000

>  <partition>  (358)
BAT_EXTERNAL_CONFIRM

>  <method>  (358)
BA_seed193

>  <candidate>  (358)
primary

$$$$
train::CCOC(=O)CNC(=O)C(CO)NC(=O)OCc1ccccc1__gen0001
     RDKit          3D

 43 43  0  0  0  0  0  0  0  0999 V2000
    1.2749    2.5163    2.8199 C   0  0  0  0  0  0  0  0  0  0  0  0
   -0.2014    2.4349    2.4439 C   0  0  0  0  0  0  0  0  0  1  0  0
   -0.3481    2.7855    1.4115 H   0  0  0  0  0  0  0  0  0  2  0  0
   -0.8328    3.0163    3.1240 H   0  0  0  0  0  0  0  0  0  3  0  0
   -0.6888    1.0842    2.5218 O   0  0  0  0  0  0  0  0  0  4  0  0
   -0.3982    0.2750    1.5289 C   0  0  0  0  0  0  0  0  0  5  0  0
    0.1865    0.5862    0.5207 O   0  0  0  0  0  0  0  0  0  6  0  0
   -0.9018   -1.1331    1.8002 C   0  0  0  0  0  0  0  0  0  7  0  0
   -0.2800   -2.0499    0.8617 N   0  0  0  0  0  0  0  0  0  8  0  0
    1.0480   -2.2725    0.9288 C   0  0  0  0  0  0  0  0  0  9  0  0
    1.7304   -2.0514    1.9026 O   0  0  0  0  0  0  0  0  0 10  0  0
    1.6203   -2.8031   -0.4078 C   0  0  1  0  0  0  0  0  0 11  0  0
    1.6705   -1.7264   -1.3626 N   0  0  0  0  0  0  0  0  0 12  0  0
    0.5469   -1.2892   -1.9616 C   0  0  0  0  0  0  0  0  0 13  0  0
   -0.4964   -1.9040   -1.9664 O   0  0  0  0  0  0  0  0  0 14  0  0
    0.7451   -0.1292   -2.6056 O   0  0  0  0  0  0  0  0  0 15  0  0
   -0.3943    0.4524   -3.2392 C   0  0  0  0  0  0  0  0  0 16  0  0
   -1.3255    1.0871   -2.2285 C   0  0  0  0  0  0  0  0  0 17  0  0
   -2.4267    0.3878   -1.7564 C   0  0  0  0  0  0  0  0  0 18  0  0
   -2.6258   -0.6011   -2.1264 H   0  0  0  0  0  0  0  0  0 27  0  0
   -3.2394    0.9512   -0.7907 C   0  0  0  0  0  0  0  0  0 19  0  0
   -4.0913    0.4027   -0.4318 H   0  0  0  0  0  0  0  0  0 26  0  0
   -2.9785    2.2325   -0.3239 C   0  0  0  0  0  0  0  0  0 20  0  0
   -3.6307    2.6746    0.4216 H   0  0  0  0  0  0  0  0  0 25  0  0
   -1.8926    2.9349   -0.8061 C   0  0  0  0  0  0  0  0  0 21  0  0
   -1.6936    3.9275   -0.4465 H   0  0  0  0  0  0  0  0  0 24  0  0
   -1.0591    2.3631   -1.7523 C   0  0  0  0  0  0  0  0  0 22  0  0
   -0.2012    2.8977   -2.1195 H   0  0  0  0  0  0  0  0  0 23  0  0
   -0.9197   -0.3181   -3.8161 H   0  0  0  0  0  0  0  0  0 28  0  0
    0.0184    1.1993   -3.9143 H   0  0  0  0  0  0  0  0  0 29  0  0
    2.4427   -1.0754   -1.2939 H   0  0  0  0  0  0  0  0  0 30  0  0
    0.9460   -3.5676   -0.7974 H   0  0  0  0  0  0  0  0  0 31  0  0
    3.0209   -3.4022   -0.2119 C   0  0  0  0  0  0  0  0  0 32  0  0
    3.9198   -2.4947    0.3662 O   0  0  0  0  0  0  0  0  0 33  0  0
    3.5276   -2.2328    1.2257 H   0  0  0  0  0  0  0  0  0 34  0  0
    3.4386   -3.6959   -1.1793 H   0  0  0  0  0  0  0  0  0 35  0  0
    2.9225   -4.3169    0.4087 H   0  0  0  0  0  0  0  0  0 36  0  0
   -0.7327   -2.1679   -0.0328 H   0  0  0  0  0  0  0  0  0 37  0  0
   -1.9811   -1.1893    1.7095 H   0  0  0  0  0  0  0  0  0 38  0  0
   -0.6055   -1.4095    2.8235 H   0  0  0  0  0  0  0  0  0 39  0  0
    1.4224    2.1372    3.8343 H   0  0  0  0  0  0  0  0  0 40  0  0
    1.5996    3.5525    2.7862 H   0  0  0  0  0  0  0  0  0 41  0  0
    1.8643    1.9313    2.1311 H   0  0  0  0  0  0  0  0  0 42  0  0
  1  2  1  0
  2  3  1  0
  2  4  1  0
  2  5  1  0
  5  6  1  0
  6  7  2  0
  6  8  1  0
  8  9  1  0
  9 10  1  0
 10 11  2  0
 10 12  1  0
 12 13  1  0
 13 14  1  0
 14 15  2  0
 14 16  1  0
 16 17  1  0
 17 18  1  0
 18 19  4  0
 19 20  1  0
 19 21  4  0
 21 22  1  0
 21 23  4  0
 23 24  1  0
 23 25  4  0
 25 26  1  0
 25 27  4  0
 27 28  1  0
 17 29  1  0
 17 30  1  0
 13 31  1  0
 12 32  1  6
 12 33  1  0
 33 34  1  0
 34 35  1  0
 33 36  1  0
 33 37  1  0
  9 38  1  0
  8 39  1  0
  8 40  1  0
  1 41  1  0
  1 42  1  0
  1 43  1  0
 27 18  4  0
M  END
>  <sample_id>  (359)
train::CCOC(=O)CNC(=O)C(CO)NC(=O)OCc1ccccc1__gen0001

>  <partition>  (359)
BAT_EXTERNAL_CONFIRM

>  <method>  (359)
BA_seed193

>  <candidate>  (359)
primary

$$$$
train::CCOC(=O)CNC(=O)C(CO)NC(=O)OCc1ccccc1__gen0002
     RDKit          3D

 43 43  0  0  0  0  0  0  0  0999 V2000
   -3.9944   -1.0739    1.6870 C   0  0  0  0  0  0  0  0  0  0  0  0
   -2.9895   -2.1293    1.2692 C   0  0  0  0  0  0  0  0  0  1  0  0
   -3.3787   -3.1402    1.4045 H   0  0  0  0  0  0  0  0  0  2  0  0
   -2.7173   -1.9959    0.2156 H   0  0  0  0  0  0  0  0  0  3  0  0
   -1.8088   -2.0627    2.0613 O   0  0  0  0  0  0  0  0  0  4  0  0
   -0.8842   -1.1743    1.7439 C   0  0  0  0  0  0  0  0  0  5  0  0
   -0.9235   -0.4261    0.7990 O   0  0  0  0  0  0  0  0  0  6  0  0
    0.2756   -1.2159    2.7281 C   0  0  0  0  0  0  0  0  0  7  0  0
    1.3669   -0.4107    2.2631 N   0  0  0  0  0  0  0  0  0  8  0  0
    1.4260    0.9017    2.5703 C   0  0  0  0  0  0  0  0  0  9  0  0
    0.7586    1.4481    3.4274 O   0  0  0  0  0  0  0  0  0 10  0  0
    2.4809    1.6626    1.7477 C   0  0  1  0  0  0  0  0  0 11  0  0
    2.1280    1.7191    0.3325 N   0  0  0  0  0  0  0  0  0 12  0  0
    2.2217    0.6892   -0.5129 C   0  0  0  0  0  0  0  0  0 13  0  0
    2.5929   -0.4234   -0.2060 O   0  0  0  0  0  0  0  0  0 14  0  0
    1.9135    1.0930   -1.7579 O   0  0  0  0  0  0  0  0  0 15  0  0
    1.9015    0.1073   -2.7896 C   0  0  0  0  0  0  0  0  0 16  0  0
    0.4859   -0.3015   -3.1220 C   0  0  0  0  0  0  0  0  0 17  0  0
   -0.1774   -1.2200   -2.3166 C   0  0  0  0  0  0  0  0  0 18  0  0
    0.3303   -1.6406   -1.4614 H   0  0  0  0  0  0  0  0  0 27  0  0
   -1.4804   -1.5766   -2.6107 C   0  0  0  0  0  0  0  0  0 19  0  0
   -1.9841   -2.3080   -1.9938 H   0  0  0  0  0  0  0  0  0 26  0  0
   -2.1252   -1.0293   -3.7062 C   0  0  0  0  0  0  0  0  0 20  0  0
   -3.1377   -1.3126   -3.9237 H   0  0  0  0  0  0  0  0  0 25  0  0
   -1.4699   -0.1101   -4.5099 C   0  0  0  0  0  0  0  0  0 21  0  0
   -1.9765    0.3291   -5.3548 H   0  0  0  0  0  0  0  0  0 24  0  0
   -0.1687    0.2552   -4.2152 C   0  0  0  0  0  0  0  0  0 22  0  0
    0.3446    0.9713   -4.8355 H   0  0  0  0  0  0  0  0  0 23  0  0
    2.3934    0.5660   -3.6471 H   0  0  0  0  0  0  0  0  0 28  0  0
    2.4841   -0.7673   -2.4553 H   0  0  0  0  0  0  0  0  0 29  0  0
    1.7888    2.5993   -0.0136 H   0  0  0  0  0  0  0  0  0 30  0  0
    3.4363    1.1322    1.8489 H   0  0  0  0  0  0  0  0  0 31  0  0
    2.6256    3.1053    2.2725 C   0  0  0  0  0  0  0  0  0 32  0  0
    1.4847    3.8621    2.0325 O   0  0  0  0  0  0  0  0  0 33  0  0
    0.7777    3.4807    2.5737 H   0  0  0  0  0  0  0  0  0 34  0  0
    3.4519    3.6004    1.7487 H   0  0  0  0  0  0  0  0  0 35  0  0
    2.8425    3.0568    3.3472 H   0  0  0  0  0  0  0  0  0 36  0  0
    1.8900   -0.7230    1.4527 H   0  0  0  0  0  0  0  0  0 37  0  0
   -0.0606   -0.8416    3.6967 H   0  0  0  0  0  0  0  0  0 38  0  0
    0.5892   -2.2491    2.8357 H   0  0  0  0  0  0  0  0  0 39  0  0
   -4.8947   -1.1635    1.0870 H   0  0  0  0  0  0  0  0  0 40  0  0
   -4.2504   -1.2012    2.7341 H   0  0  0  0  0  0  0  0  0 41  0  0
   -3.5686   -0.0825    1.5532 H   0  0  0  0  0  0  0  0  0 42  0  0
  1  2  1  0
  2  3  1  0
  2  4  1  0
  2  5  1  0
  5  6  1  0
  6  7  2  0
  6  8  1  0
  8  9  1  0
  9 10  1  0
 10 11  2  0
 10 12  1  0
 12 13  1  0
 13 14  1  0
 14 15  2  0
 14 16  1  0
 16 17  1  0
 17 18  1  0
 18 19  4  0
 19 20  1  0
 19 21  4  0
 21 22  1  0
 21 23  4  0
 23 24  1  0
 23 25  4  0
 25 26  1  0
 25 27  4  0
 27 28  1  0
 17 29  1  0
 17 30  1  0
 13 31  1  0
 12 32  1  6
 12 33  1  0
 33 34  1  0
 34 35  1  0
 33 36  1  0
 33 37  1  0
  9 38  1  0
  8 39  1  0
  8 40  1  0
  1 41  1  0
  1 42  1  0
  1 43  1  0
 27 18  4  0
M  END
>  <sample_id>  (360)
train::CCOC(=O)CNC(=O)C(CO)NC(=O)OCc1ccccc1__gen0002

>  <partition>  (360)
BAT_EXTERNAL_CONFIRM

>  <method>  (360)
BA_seed193

>  <candidate>  (360)
primary

$$$$
train::C[C@@H](NC(=O)c1nc[nH]c1C(=O)N[C@@H](Cc1ccccc1)C(=O)OCc1ccccc1)c1ccccc1__gen0000
     RDKit          3D

 65 68  0  0  0  0  0  0  0  0999 V2000
   -0.6725    0.1209   -5.1141 C   0  0  0  0  0  0  0  0  0  0  0  0
   -0.2954   -0.7805   -5.6088 H   0  0  0  0  0  0  0  0  0  1  0  0
   -1.7536    0.0862   -5.0699 H   0  0  0  0  0  0  0  0  0  2  0  0
   -0.3849    0.9893   -5.6928 H   0  0  0  0  0  0  0  0  0  3  0  0
   -0.1087    0.2035   -3.6870 C   0  0  1  0  0  0  0  0  0  4  0  0
   -0.6190   -0.9033   -2.9192 N   0  0  0  0  0  0  0  0  0  5  0  0
   -1.0310   -0.7907   -1.6562 C   0  0  0  0  0  0  0  0  0  6  0  0
   -1.1184    0.2533   -1.0288 O   0  0  0  0  0  0  0  0  0  7  0  0
   -1.4250   -2.1054   -1.0614 C   0  0  0  0  0  0  0  0  0  8  0  0
   -1.6794   -2.4703    0.2629 C   0  0  0  0  0  0  0  0  0  9  0  0
   -1.5374   -1.8579    1.5828 C   0  0  0  0  0  0  0  0  0 15  0  0
   -1.6331   -2.5667    2.5751 O   0  0  0  0  0  0  0  0  0 16  0  0
   -1.2884   -0.5421    1.5910 N   0  0  0  0  0  0  0  0  0 17  0  0
   -0.9699    0.2840    2.7541 C   0  0  2  0  0  0  0  0  0 18  0  0
    0.3461    1.0245    2.4568 C   0  0  0  0  0  0  0  0  0 19  0  0
    0.6648    2.0249    3.0340 O   0  0  0  0  0  0  0  0  0 20  0  0
    1.0606    0.4394    1.4951 O   0  0  0  0  0  0  0  0  0 21  0  0
    2.3487    0.9527    1.2211 C   0  0  0  0  0  0  0  0  0 22  0  0
    2.3946    1.8482   -0.0087 C   0  0  0  0  0  0  0  0  0 23  0  0
    3.6368    2.2714   -0.4686 C   0  0  0  0  0  0  0  0  0 24  0  0
    4.5363    1.9852    0.0686 H   0  0  0  0  0  0  0  0  0 33  0  0
    3.7249    3.1262   -1.5572 C   0  0  0  0  0  0  0  0  0 25  0  0
    4.6907    3.4548   -1.9073 H   0  0  0  0  0  0  0  0  0 32  0  0
    2.5694    3.5271   -2.2080 C   0  0  0  0  0  0  0  0  0 26  0  0
    2.6337    4.1672   -3.0707 H   0  0  0  0  0  0  0  0  0 31  0  0
    1.3313    3.0820   -1.7714 C   0  0  0  0  0  0  0  0  0 27  0  0
    0.4372    3.4037   -2.2762 H   0  0  0  0  0  0  0  0  0 30  0  0
    1.2488    2.2547   -0.6706 C   0  0  0  0  0  0  0  0  0 28  0  0
    0.2871    1.8911   -0.3508 H   0  0  0  0  0  0  0  0  0 29  0  0
    2.7025    1.5341    2.0785 H   0  0  0  0  0  0  0  0  0 34  0  0
    2.9959    0.0838    1.0648 H   0  0  0  0  0  0  0  0  0 35  0  0
   -0.8675   -0.4183    4.1204 C   0  0  0  0  0  0  0  0  0 36  0  0
   -2.2313   -0.6417    4.7545 C   0  0  0  0  0  0  0  0  0 37  0  0
   -2.9365    0.4242    5.2836 C   0  0  0  0  0  0  0  0  0 38  0  0
   -2.4659    1.4083    5.3197 H   0  0  0  0  0  0  0  0  0 47  0  0
   -4.1903    0.2377    5.8421 C   0  0  0  0  0  0  0  0  0 39  0  0
   -4.7354    1.0747    6.2469 H   0  0  0  0  0  0  0  0  0 46  0  0
   -4.7888   -1.0219    5.8303 C   0  0  0  0  0  0  0  0  0 40  0  0
   -5.7794   -1.1630    6.2282 H   0  0  0  0  0  0  0  0  0 45  0  0
   -4.0945   -2.0937    5.3087 C   0  0  0  0  0  0  0  0  0 41  0  0
   -4.5283   -3.0795    5.3274 H   0  0  0  0  0  0  0  0  0 44  0  0
   -2.8236   -1.8962    4.7863 C   0  0  0  0  0  0  0  0  0 42  0  0
   -2.2771   -2.7449    4.4151 H   0  0  0  0  0  0  0  0  0 43  0  0
   -0.3200   -1.3589    3.9871 H   0  0  0  0  0  0  0  0  0 48  0  0
   -0.2717    0.2395    4.7670 H   0  0  0  0  0  0  0  0  0 49  0  0
   -1.7615    1.0438    2.8352 H   0  0  0  0  0  0  0  0  0 50  0  0
   -1.2577   -0.0886    0.6745 H   0  0  0  0  0  0  0  0  0 51  0  0
   -2.0117   -3.7914    0.1869 N   0  0  0  0  0  0  0  0  0 10  0  0
   -2.2460   -4.3392    0.9997 H   0  0  0  0  0  0  0  0  0 14  0  0
   -1.9606   -4.1667   -1.1070 C   0  0  0  0  0  0  0  0  0 11  0  0
   -2.2176   -5.1552   -1.4518 H   0  0  0  0  0  0  0  0  0 13  0  0
   -1.6266   -3.1755   -1.8833 N   0  0  0  0  0  0  0  0  0 12  0  0
   -0.5578   -1.8378   -3.3081 H   0  0  0  0  0  0  0  0  0 52  0  0
    1.4129    0.2928   -3.6898 C   0  0  0  0  0  0  0  0  0 53  0  0
    2.1060    0.9945   -4.6691 C   0  0  0  0  0  0  0  0  0 54  0  0
    1.5526    1.4988   -5.4518 H   0  0  0  0  0  0  0  0  0 63  0  0
    3.4919    1.0755   -4.6434 C   0  0  0  0  0  0  0  0  0 55  0  0
    4.0029    1.6318   -5.4155 H   0  0  0  0  0  0  0  0  0 62  0  0
    4.1923    0.4619   -3.6171 C   0  0  0  0  0  0  0  0  0 56  0  0
    5.2778    0.5254   -3.6000 H   0  0  0  0  0  0  0  0  0 61  0  0
    3.5125   -0.2281   -2.6241 C   0  0  0  0  0  0  0  0  0 57  0  0
    4.0632   -0.6659   -1.8112 H   0  0  0  0  0  0  0  0  0 60  0  0
    2.1289   -0.3010   -2.6592 C   0  0  0  0  0  0  0  0  0 58  0  0
    1.6194   -0.8271   -1.8591 H   0  0  0  0  0  0  0  0  0 59  0  0
   -0.5035    1.0945   -3.1800 H   0  0  0  0  0  0  0  0  0 64  0  0
  1  2  1  0
  1  3  1  0
  1  4  1  0
  1  5  1  0
  5  6  1  0
  6  7  1  0
  7  8  2  0
  7  9  1  0
  9 10  4  0
 10 11  1  0
 11 12  2  0
 11 13  1  0
 13 14  1  0
 14 15  1  0
 15 16  2  0
 15 17  1  0
 17 18  1  0
 18 19  1  0
 19 20  4  0
 20 21  1  0
 20 22  4  0
 22 23  1  0
 22 24  4  0
 24 25  1  0
 24 26  4  0
 26 27  1  0
 26 28  4  0
 28 29  1  0
 18 30  1  0
 18 31  1  0
 14 32  1  0
 32 33  1  0
 33 34  4  0
 34 35  1  0
 34 36  4  0
 36 37  1  0
 36 38  4  0
 38 39  1  0
 38 40  4  0
 40 41  1  0
 40 42  4  0
 42 43  1  0
 32 44  1  0
 32 45  1  0
 14 46  1  1
 13 47  1  0
 10 48  4  0
 48 49  1  0
 48 50  4  0
 50 51  1  0
 50 52  4  0
  6 53  1  0
  5 54  1  0
 54 55  4  0
 55 56  1  0
 55 57  4  0
 57 58  1  0
 57 59  4  0
 59 60  1  0
 59 61  4  0
 61 62  1  0
 61 63  4  0
 63 64  1  0
  5 65  1  1
 52  9  4  0
 63 54  4  0
 28 19  4  0
 42 33  4  0
M  END
>  <sample_id>  (361)
train::C[C@@H](NC(=O)c1nc[nH]c1C(=O)N[C@@H](Cc1ccccc1)C(=O)OCc1ccccc1)c1ccccc1__gen0000

>  <partition>  (361)
BAT_EXTERNAL_CONFIRM

>  <method>  (361)
BA_seed193

>  <candidate>  (361)
primary

$$$$
train::C[C@@H](NC(=O)c1nc[nH]c1C(=O)N[C@@H](Cc1ccccc1)C(=O)OCc1ccccc1)c1ccccc1__gen0001
     RDKit          3D

 65 68  0  0  0  0  0  0  0  0999 V2000
   -1.1849   -0.4543   -4.2225 C   0  0  0  0  0  0  0  0  0  0  0  0
   -1.3301   -1.3883   -4.7767 H   0  0  0  0  0  0  0  0  0  1  0  0
   -0.1676   -0.0933   -4.3823 H   0  0  0  0  0  0  0  0  0  2  0  0
   -1.8775    0.2913   -4.6103 H   0  0  0  0  0  0  0  0  0  3  0  0
   -1.4194   -0.6874   -2.7281 C   0  0  1  0  0  0  0  0  0  4  0  0
   -1.2779    0.5573   -1.9993 N   0  0  0  0  0  0  0  0  0  5  0  0
   -0.4457    0.7324   -0.9811 C   0  0  0  0  0  0  0  0  0  6  0  0
    0.3025   -0.1198   -0.5130 O   0  0  0  0  0  0  0  0  0  7  0  0
   -0.5155    2.1279   -0.4617 C   0  0  0  0  0  0  0  0  0  8  0  0
    0.2187    2.7919    0.5186 C   0  0  0  0  0  0  0  0  0  9  0  0
    1.2075    2.4458    1.5495 C   0  0  0  0  0  0  0  0  0 15  0  0
    1.5937    3.3199    2.3125 O   0  0  0  0  0  0  0  0  0 16  0  0
    1.6013    1.1702    1.5600 N   0  0  0  0  0  0  0  0  0 17  0  0
    2.5163    0.6852    2.5682 C   0  0  1  0  0  0  0  0  0 18  0  0
    1.8789   -0.4598    3.3693 C   0  0  0  0  0  0  0  0  0 19  0  0
    2.4867   -1.2160    4.0751 O   0  0  0  0  0  0  0  0  0 20  0  0
    0.5546   -0.4786    3.1454 O   0  0  0  0  0  0  0  0  0 21  0  0
   -0.1941   -1.5761    3.6600 C   0  0  0  0  0  0  0  0  0 22  0  0
   -1.0296   -2.1255    2.5051 C   0  0  0  0  0  0  0  0  0 23  0  0
   -1.8682   -1.2555    1.8235 C   0  0  0  0  0  0  0  0  0 24  0  0
   -1.9275   -0.2190    2.1364 H   0  0  0  0  0  0  0  0  0 33  0  0
   -2.6165   -1.7095    0.7675 C   0  0  0  0  0  0  0  0  0 25  0  0
   -3.2803   -1.0293    0.2577 H   0  0  0  0  0  0  0  0  0 32  0  0
   -2.5393   -3.0304    0.3884 C   0  0  0  0  0  0  0  0  0 26  0  0
   -3.1260   -3.3999   -0.4397 H   0  0  0  0  0  0  0  0  0 31  0  0
   -1.6743   -3.9005    1.0350 C   0  0  0  0  0  0  0  0  0 27  0  0
   -1.6052   -4.9331    0.7270 H   0  0  0  0  0  0  0  0  0 30  0  0
   -0.9228   -3.4419    2.1058 C   0  0  0  0  0  0  0  0  0 28  0  0
   -0.2562   -4.1063    2.6194 H   0  0  0  0  0  0  0  0  0 29  0  0
   -0.8473   -1.2230    4.4643 H   0  0  0  0  0  0  0  0  0 34  0  0
    0.4868   -2.3409    4.0540 H   0  0  0  0  0  0  0  0  0 35  0  0
    3.8350    0.1585    1.9672 C   0  0  0  0  0  0  0  0  0 36  0  0
    4.3927    1.1934    1.0253 C   0  0  0  0  0  0  0  0  0 37  0  0
    5.1907    2.2235    1.5030 C   0  0  0  0  0  0  0  0  0 38  0  0
    5.4599    2.2410    2.5463 H   0  0  0  0  0  0  0  0  0 47  0  0
    5.6885    3.1826    0.6372 C   0  0  0  0  0  0  0  0  0 39  0  0
    6.3155    3.9857    1.0425 H   0  0  0  0  0  0  0  0  0 46  0  0
    5.3602    3.1501   -0.7052 C   0  0  0  0  0  0  0  0  0 40  0  0
    5.7312    3.9142   -1.3787 H   0  0  0  0  0  0  0  0  0 45  0  0
    4.5585    2.1347   -1.1819 C   0  0  0  0  0  0  0  0  0 41  0  0
    4.3001    2.0816   -2.2325 H   0  0  0  0  0  0  0  0  0 44  0  0
    4.0758    1.1671   -0.3244 C   0  0  0  0  0  0  0  0  0 42  0  0
    3.4435    0.3659   -0.7059 H   0  0  0  0  0  0  0  0  0 43  0  0
    4.5327   -0.0436    2.7796 H   0  0  0  0  0  0  0  0  0 48  0  0
    3.6398   -0.7668    1.4255 H   0  0  0  0  0  0  0  0  0 49  0  0
    2.7288    1.5176    3.2362 H   0  0  0  0  0  0  0  0  0 50  0  0
    1.2281    0.5100    0.8859 H   0  0  0  0  0  0  0  0  0 51  0  0
   -0.2629    4.0606    0.5082 N   0  0  0  0  0  0  0  0  0 10  0  0
    0.0766    4.7683    1.1410 H   0  0  0  0  0  0  0  0  0 14  0  0
   -1.1865    4.1621   -0.4557 C   0  0  0  0  0  0  0  0  0 11  0  0
   -1.7450    5.0545   -0.6855 H   0  0  0  0  0  0  0  0  0 13  0  0
   -1.3801    3.0124   -1.0565 N   0  0  0  0  0  0  0  0  0 12  0  0
   -1.8183    1.3644   -2.3018 H   0  0  0  0  0  0  0  0  0 52  0  0
   -2.7733   -1.3528   -2.5373 C   0  0  0  0  0  0  0  0  0 53  0  0
   -3.8959   -0.6260   -2.1425 C   0  0  0  0  0  0  0  0  0 54  0  0
   -3.8327    0.4305   -1.9773 H   0  0  0  0  0  0  0  0  0 63  0  0
   -5.1262   -1.2634   -1.9945 C   0  0  0  0  0  0  0  0  0 55  0  0
   -5.9935   -0.7002   -1.6985 H   0  0  0  0  0  0  0  0  0 62  0  0
   -5.2295   -2.6210   -2.2255 C   0  0  0  0  0  0  0  0  0 56  0  0
   -6.1606   -3.1278   -2.0839 H   0  0  0  0  0  0  0  0  0 61  0  0
   -4.1181   -3.3451   -2.6220 C   0  0  0  0  0  0  0  0  0 57  0  0
   -4.2013   -4.3921   -2.7928 H   0  0  0  0  0  0  0  0  0 60  0  0
   -2.8976   -2.7231   -2.7553 C   0  0  0  0  0  0  0  0  0 58  0  0
   -2.0373   -3.2885   -3.0412 H   0  0  0  0  0  0  0  0  0 59  0  0
   -0.6401   -1.3615   -2.3268 H   0  0  0  0  0  0  0  0  0 64  0  0
  1  2  1  0
  1  3  1  0
  1  4  1  0
  1  5  1  0
  5  6  1  0
  6  7  1  0
  7  8  2  0
  7  9  1  0
  9 10  4  0
 10 11  1  0
 11 12  2  0
 11 13  1  0
 13 14  1  0
 14 15  1  0
 15 16  2  0
 15 17  1  0
 17 18  1  0
 18 19  1  0
 19 20  4  0
 20 21  1  0
 20 22  4  0
 22 23  1  0
 22 24  4  0
 24 25  1  0
 24 26  4  0
 26 27  1  0
 26 28  4  0
 28 29  1  0
 18 30  1  0
 18 31  1  0
 14 32  1  0
 32 33  1  0
 33 34  4  0
 34 35  1  0
 34 36  4  0
 36 37  1  0
 36 38  4  0
 38 39  1  0
 38 40  4  0
 40 41  1  0
 40 42  4  0
 42 43  1  0
 32 44  1  0
 32 45  1  0
 14 46  1  6
 13 47  1  0
 10 48  4  0
 48 49  1  0
 48 50  4  0
 50 51  1  0
 50 52  4  0
  6 53  1  0
  5 54  1  0
 54 55  4  0
 55 56  1  0
 55 57  4  0
 57 58  1  0
 57 59  4  0
 59 60  1  0
 59 61  4  0
 61 62  1  0
 61 63  4  0
 63 64  1  0
  5 65  1  1
 52  9  4  0
 63 54  4  0
 28 19  4  0
 42 33  4  0
M  END
>  <sample_id>  (362)
train::C[C@@H](NC(=O)c1nc[nH]c1C(=O)N[C@@H](Cc1ccccc1)C(=O)OCc1ccccc1)c1ccccc1__gen0001

>  <partition>  (362)
BAT_EXTERNAL_CONFIRM

>  <method>  (362)
BA_seed193

>  <candidate>  (362)
primary

$$$$
train::C[C@@H](NC(=O)c1nc[nH]c1C(=O)N[C@@H](Cc1ccccc1)C(=O)OCc1ccccc1)c1ccccc1__gen0002
     RDKit          3D

 65 68  0  0  0  0  0  0  0  0999 V2000
   -4.0432   -2.1443    0.9127 C   0  0  0  0  0  0  0  0  0  0  0  0
   -4.8731   -2.1133    0.2098 H   0  0  0  0  0  0  0  0  0  1  0  0
   -4.0377   -3.1226    1.3933 H   0  0  0  0  0  0  0  0  0  2  0  0
   -4.2039   -1.3917    1.6774 H   0  0  0  0  0  0  0  0  0  3  0  0
   -2.7219   -1.8882    0.1756 C   0  0  1  0  0  0  0  0  0  4  0  0
   -1.6219   -1.8831    1.1130 N   0  0  0  0  0  0  0  0  0  5  0  0
   -0.7007   -0.9070    1.1576 C   0  0  0  0  0  0  0  0  0  6  0  0
   -0.7588    0.0990    0.4533 O   0  0  0  0  0  0  0  0  0  7  0  0
    0.4070   -1.1987    2.0881 C   0  0  0  0  0  0  0  0  0  8  0  0
    1.6310   -0.5383    2.2919 C   0  0  0  0  0  0  0  0  0  9  0  0
    2.3156    0.6138    1.6933 C   0  0  0  0  0  0  0  0  0 15  0  0
    3.4807    0.8762    2.0375 O   0  0  0  0  0  0  0  0  0 16  0  0
    1.6234    1.3139    0.7803 N   0  0  0  0  0  0  0  0  0 17  0  0
    2.1907    2.4273    0.0956 C   0  0  1  0  0  0  0  0  0 18  0  0
    1.9319    2.3688   -1.4126 C   0  0  0  0  0  0  0  0  0 19  0  0
    2.0766    3.3180   -2.1359 O   0  0  0  0  0  0  0  0  0 20  0  0
    1.5691    1.1423   -1.7924 O   0  0  0  0  0  0  0  0  0 21  0  0
    1.2402    0.9517   -3.1639 C   0  0  0  0  0  0  0  0  0 22  0  0
   -0.1475    0.3719   -3.3064 C   0  0  0  0  0  0  0  0  0 23  0  0
   -1.1941    0.8689   -2.5441 C   0  0  0  0  0  0  0  0  0 24  0  0
   -1.0297    1.6697   -1.8457 H   0  0  0  0  0  0  0  0  0 33  0  0
   -2.4596    0.3522   -2.6700 C   0  0  0  0  0  0  0  0  0 25  0  0
   -3.2777    0.7575   -2.0852 H   0  0  0  0  0  0  0  0  0 32  0  0
   -2.7031   -0.6734   -3.5732 C   0  0  0  0  0  0  0  0  0 26  0  0
   -3.7008   -1.0665   -3.6909 H   0  0  0  0  0  0  0  0  0 31  0  0
   -1.6694   -1.1655   -4.3517 C   0  0  0  0  0  0  0  0  0 27  0  0
   -1.8443   -1.9708   -5.0494 H   0  0  0  0  0  0  0  0  0 30  0  0
   -0.3959   -0.6591   -4.2018 C   0  0  0  0  0  0  0  0  0 28  0  0
    0.4283   -1.0556   -4.7774 H   0  0  0  0  0  0  0  0  0 29  0  0
    1.9902    0.2685   -3.5981 H   0  0  0  0  0  0  0  0  0 34  0  0
    1.2978    1.9161   -3.6904 H   0  0  0  0  0  0  0  0  0 35  0  0
    1.6512    3.7528    0.6655 C   0  0  0  0  0  0  0  0  0 36  0  0
    2.1157    3.8908    2.0941 C   0  0  0  0  0  0  0  0  0 37  0  0
    3.3035    4.5537    2.3942 C   0  0  0  0  0  0  0  0  0 38  0  0
    3.8728    5.0051    1.5916 H   0  0  0  0  0  0  0  0  0 47  0  0
    3.7664    4.6181    3.7015 C   0  0  0  0  0  0  0  0  0 39  0  0
    4.6944    5.1324    3.9185 H   0  0  0  0  0  0  0  0  0 46  0  0
    3.0487    4.0121    4.7178 C   0  0  0  0  0  0  0  0  0 40  0  0
    3.4010    4.0597    5.7350 H   0  0  0  0  0  0  0  0  0 45  0  0
    1.8576    3.3697    4.4352 C   0  0  0  0  0  0  0  0  0 41  0  0
    1.2869    2.8977    5.2226 H   0  0  0  0  0  0  0  0  0 44  0  0
    1.3995    3.2965    3.1287 C   0  0  0  0  0  0  0  0  0 42  0  0
    0.4698    2.7917    2.9201 H   0  0  0  0  0  0  0  0  0 43  0  0
    2.0159    4.5827    0.0626 H   0  0  0  0  0  0  0  0  0 48  0  0
    0.5548    3.7421    0.6217 H   0  0  0  0  0  0  0  0  0 49  0  0
    3.2693    2.4115    0.2635 H   0  0  0  0  0  0  0  0  0 50  0  0
    0.6959    0.9961    0.5345 H   0  0  0  0  0  0  0  0  0 51  0  0
    2.2657   -1.2536    3.2551 N   0  0  0  0  0  0  0  0  0 10  0  0
    3.1776   -0.9888    3.5996 H   0  0  0  0  0  0  0  0  0 14  0  0
    1.4648   -2.2764    3.6081 C   0  0  0  0  0  0  0  0  0 11  0  0
    1.7292   -3.0084    4.3414 H   0  0  0  0  0  0  0  0  0 13  0  0
    0.3480   -2.2834    2.9097 N   0  0  0  0  0  0  0  0  0 12  0  0
   -1.4985   -2.6605    1.7489 H   0  0  0  0  0  0  0  0  0 52  0  0
   -2.4540   -2.8963   -0.9238 C   0  0  0  0  0  0  0  0  0 53  0  0
   -3.3545   -3.8809   -1.3122 C   0  0  0  0  0  0  0  0  0 54  0  0
   -4.3202   -3.9699   -0.8322 H   0  0  0  0  0  0  0  0  0 63  0  0
   -3.0449   -4.7614   -2.3343 C   0  0  0  0  0  0  0  0  0 55  0  0
   -3.7602   -5.5120   -2.6404 H   0  0  0  0  0  0  0  0  0 62  0  0
   -1.8131   -4.6878   -2.9822 C   0  0  0  0  0  0  0  0  0 56  0  0
   -1.5804   -5.3783   -3.7799 H   0  0  0  0  0  0  0  0  0 61  0  0
   -0.9042   -3.6992   -2.6061 C   0  0  0  0  0  0  0  0  0 57  0  0
    0.0469   -3.6271   -3.1034 H   0  0  0  0  0  0  0  0  0 60  0  0
   -1.2313   -2.8299   -1.5746 C   0  0  0  0  0  0  0  0  0 58  0  0
   -0.5329   -2.0548   -1.3142 H   0  0  0  0  0  0  0  0  0 59  0  0
   -2.7412   -0.8814   -0.2563 H   0  0  0  0  0  0  0  0  0 64  0  0
  1  2  1  0
  1  3  1  0
  1  4  1  0
  1  5  1  0
  5  6  1  0
  6  7  1  0
  7  8  2  0
  7  9  1  0
  9 10  4  0
 10 11  1  0
 11 12  2  0
 11 13  1  0
 13 14  1  0
 14 15  1  0
 15 16  2  0
 15 17  1  0
 17 18  1  0
 18 19  1  0
 19 20  4  0
 20 21  1  0
 20 22  4  0
 22 23  1  0
 22 24  4  0
 24 25  1  0
 24 26  4  0
 26 27  1  0
 26 28  4  0
 28 29  1  0
 18 30  1  0
 18 31  1  0
 14 32  1  0
 32 33  1  0
 33 34  4  0
 34 35  1  0
 34 36  4  0
 36 37  1  0
 36 38  4  0
 38 39  1  0
 38 40  4  0
 40 41  1  0
 40 42  4  0
 42 43  1  0
 32 44  1  0
 32 45  1  0
 14 46  1  1
 13 47  1  0
 10 48  4  0
 48 49  1  0
 48 50  4  0
 50 51  1  0
 50 52  4  0
  6 53  1  0
  5 54  1  0
 54 55  4  0
 55 56  1  0
 55 57  4  0
 57 58  1  0
 57 59  4  0
 59 60  1  0
 59 61  4  0
 61 62  1  0
 61 63  4  0
 63 64  1  0
  5 65  1  6
 52  9  4  0
 63 54  4  0
 28 19  4  0
 42 33  4  0
M  END
>  <sample_id>  (363)
train::C[C@@H](NC(=O)c1nc[nH]c1C(=O)N[C@@H](Cc1ccccc1)C(=O)OCc1ccccc1)c1ccccc1__gen0002

>  <partition>  (363)
BAT_EXTERNAL_CONFIRM

>  <method>  (363)
BA_seed193

>  <candidate>  (363)
primary

$$$$
train::CCc1nnc(NC(=O)CCN2C(=O)CCC2=O)s1__gen0000
     RDKit          3D

 33 34  0  0  0  0  0  0  0  0999 V2000
   -2.5477    2.8306   -3.6120 C   0  0  0  0  0  0  0  0  0  0  0  0
   -3.1995    3.3463   -4.3036 H   0  0  0  0  0  0  0  0  0  1  0  0
   -3.0374    2.7522   -2.6486 H   0  0  0  0  0  0  0  0  0  2  0  0
   -1.6398    3.4111   -3.4942 H   0  0  0  0  0  0  0  0  0  3  0  0
   -2.2119    1.4367   -4.1475 C   0  0  0  0  0  0  0  0  0  4  0  0
   -1.3225    0.6961   -3.2159 C   0  0  0  0  0  0  0  0  0  5  0  0
   -1.6519   -0.3764   -2.5878 N   0  0  0  0  0  0  0  0  0  6  0  0
   -0.7072   -0.8658   -1.7941 N   0  0  0  0  0  0  0  0  0  7  0  0
    0.3758   -0.1533   -1.7734 C   0  0  0  0  0  0  0  0  0  8  0  0
    1.5105   -0.4145   -1.0645 N   0  0  0  0  0  0  0  0  0  9  0  0
    1.7386   -1.2926   -0.0377 C   0  0  0  0  0  0  0  0  0 10  0  0
    2.8035   -1.2821    0.5250 O   0  0  0  0  0  0  0  0  0 11  0  0
    0.6215   -2.2466    0.3187 C   0  0  0  0  0  0  0  0  0 12  0  0
   -0.3800   -1.5385    1.2238 C   0  0  0  0  0  0  0  0  0 13  0  0
    0.3125   -0.8370    2.3131 N   0  0  0  0  0  0  0  0  0 14  0  0
    0.7519    0.4545    2.1752 C   0  0  0  0  0  0  0  0  0 15  0  0
    0.5443    1.1587    1.2160 O   0  0  0  0  0  0  0  0  0 16  0  0
    1.4841    0.8140    3.4495 C   0  0  0  0  0  0  0  0  0 17  0  0
    2.4831    1.1599    3.1967 H   0  0  0  0  0  0  0  0  0 23  0  0
    0.9709    1.6285    3.9461 H   0  0  0  0  0  0  0  0  0 24  0  0
    1.5050   -0.4773    4.2716 C   0  0  0  0  0  0  0  0  0 18  0  0
    1.0561   -0.3672    5.2603 H   0  0  0  0  0  0  0  0  0 21  0  0
    2.5136   -0.8675    4.4057 H   0  0  0  0  0  0  0  0  0 22  0  0
    0.7032   -1.4749    3.4624 C   0  0  0  0  0  0  0  0  0 19  0  0
    0.4312   -2.6188    3.7331 O   0  0  0  0  0  0  0  0  0 20  0  0
   -0.9380   -0.8020    0.6424 H   0  0  0  0  0  0  0  0  0 25  0  0
   -1.0706   -2.2501    1.6716 H   0  0  0  0  0  0  0  0  0 26  0  0
    0.1070   -2.6145   -0.5658 H   0  0  0  0  0  0  0  0  0 27  0  0
    1.0631   -3.0856    0.8553 H   0  0  0  0  0  0  0  0  0 28  0  0
    2.2708    0.2457   -1.2050 H   0  0  0  0  0  0  0  0  0 29  0  0
    0.2958    1.2600   -2.8295 S   0  0  0  0  0  0  0  0  0 30  0  0
   -1.7171    1.5271   -5.1121 H   0  0  0  0  0  0  0  0  0 31  0  0
   -3.1188    0.8435   -4.2747 H   0  0  0  0  0  0  0  0  0 32  0  0
  1  2  1  0
  1  3  1  0
  1  4  1  0
  1  5  1  0
  5  6  1  0
  6  7  4  0
  7  8  4  0
  8  9  4  0
  9 10  1  0
 10 11  1  0
 11 12  2  0
 11 13  1  0
 13 14  1  0
 14 15  1  0
 15 16  1  0
 16 17  2  0
 16 18  1  0
 18 19  1  0
 18 20  1  0
 18 21  1  0
 21 22  1  0
 21 23  1  0
 21 24  1  0
 24 25  2  0
 14 26  1  0
 14 27  1  0
 13 28  1  0
 13 29  1  0
 10 30  1  0
  9 31  4  0
  5 32  1  0
  5 33  1  0
 31  6  4  0
 24 15  1  0
M  END
>  <sample_id>  (364)
train::CCc1nnc(NC(=O)CCN2C(=O)CCC2=O)s1__gen0000

>  <partition>  (364)
BAT_EXTERNAL_CONFIRM

>  <method>  (364)
BA_seed193

>  <candidate>  (364)
primary

$$$$
train::CCc1nnc(NC(=O)CCN2C(=O)CCC2=O)s1__gen0001
     RDKit          3D

 33 34  0  0  0  0  0  0  0  0999 V2000
   -1.0229   -3.6341    4.5333 C   0  0  0  0  0  0  0  0  0  0  0  0
   -1.1454   -3.8512    5.5889 H   0  0  0  0  0  0  0  0  0  1  0  0
   -1.9720   -3.7861    4.0386 H   0  0  0  0  0  0  0  0  0  2  0  0
   -0.2955   -4.3192    4.1049 H   0  0  0  0  0  0  0  0  0  3  0  0
   -0.5620   -2.1801    4.3547 C   0  0  0  0  0  0  0  0  0  4  0  0
   -0.3769   -1.8491    2.9146 C   0  0  0  0  0  0  0  0  0  5  0  0
    0.7463   -1.5694    2.3759 N   0  0  0  0  0  0  0  0  0  6  0  0
    0.6853   -1.3128    1.0708 N   0  0  0  0  0  0  0  0  0  7  0  0
   -0.5122   -1.3886    0.5828 C   0  0  0  0  0  0  0  0  0  8  0  0
   -0.8755   -1.1718   -0.7147 N   0  0  0  0  0  0  0  0  0  9  0  0
   -0.1462   -0.7297   -1.7839 C   0  0  0  0  0  0  0  0  0 10  0  0
   -0.7120   -0.5294   -2.8334 O   0  0  0  0  0  0  0  0  0 11  0  0
    1.3251   -0.5011   -1.5781 C   0  0  0  0  0  0  0  0  0 12  0  0
    1.5408    0.8779   -0.9232 C   0  0  0  0  0  0  0  0  0 13  0  0
    0.8313    1.8953   -1.6867 N   0  0  0  0  0  0  0  0  0 14  0  0
   -0.4691    2.2256   -1.4318 C   0  0  0  0  0  0  0  0  0 15  0  0
   -1.1576    1.7361   -0.5655 O   0  0  0  0  0  0  0  0  0 16  0  0
   -0.8817    3.2855   -2.4307 C   0  0  0  0  0  0  0  0  0 17  0  0
   -1.1421    4.2012   -1.9025 H   0  0  0  0  0  0  0  0  0 23  0  0
   -1.7715    2.9612   -2.9692 H   0  0  0  0  0  0  0  0  0 24  0  0
    0.3334    3.4578   -3.3468 C   0  0  0  0  0  0  0  0  0 18  0  0
    0.1349    3.1288   -4.3690 H   0  0  0  0  0  0  0  0  0 21  0  0
    0.6995    4.4815   -3.3915 H   0  0  0  0  0  0  0  0  0 22  0  0
    1.3962    2.5527   -2.7524 C   0  0  0  0  0  0  0  0  0 19  0  0
    2.5379    2.4093   -3.1120 O   0  0  0  0  0  0  0  0  0 20  0  0
    2.5999    1.1407   -0.9278 H   0  0  0  0  0  0  0  0  0 25  0  0
    1.1620    0.8568    0.0995 H   0  0  0  0  0  0  0  0  0 26  0  0
    1.8120   -0.5058   -2.5521 H   0  0  0  0  0  0  0  0  0 27  0  0
    1.7619   -1.2665   -0.9374 H   0  0  0  0  0  0  0  0  0 28  0  0
   -1.8793   -1.2449   -0.8970 H   0  0  0  0  0  0  0  0  0 29  0  0
   -1.7318   -1.8253    1.7896 S   0  0  0  0  0  0  0  0  0 30  0  0
   -1.3021   -1.5143    4.7939 H   0  0  0  0  0  0  0  0  0 31  0  0
    0.3893   -2.0311    4.8585 H   0  0  0  0  0  0  0  0  0 32  0  0
  1  2  1  0
  1  3  1  0
  1  4  1  0
  1  5  1  0
  5  6  1  0
  6  7  4  0
  7  8  4  0
  8  9  4  0
  9 10  1  0
 10 11  1  0
 11 12  2  0
 11 13  1  0
 13 14  1  0
 14 15  1  0
 15 16  1  0
 16 17  2  0
 16 18  1  0
 18 19  1  0
 18 20  1  0
 18 21  1  0
 21 22  1  0
 21 23  1  0
 21 24  1  0
 24 25  2  0
 14 26  1  0
 14 27  1  0
 13 28  1  0
 13 29  1  0
 10 30  1  0
  9 31  4  0
  5 32  1  0
  5 33  1  0
 31  6  4  0
 24 15  1  0
M  END
>  <sample_id>  (365)
train::CCc1nnc(NC(=O)CCN2C(=O)CCC2=O)s1__gen0001

>  <partition>  (365)
BAT_EXTERNAL_CONFIRM

>  <method>  (365)
BA_seed193

>  <candidate>  (365)
primary

$$$$
train::CCc1nnc(NC(=O)CCN2C(=O)CCC2=O)s1__gen0002
     RDKit          3D

 33 34  0  0  0  0  0  0  0  0999 V2000
   -3.7021    1.8714    2.3604 C   0  0  0  0  0  0  0  0  0  0  0  0
   -3.0753    2.2881    3.1431 H   0  0  0  0  0  0  0  0  0  1  0  0
   -4.6025    2.4615    2.2893 H   0  0  0  0  0  0  0  0  0  2  0  0
   -3.9801    0.8549    2.6468 H   0  0  0  0  0  0  0  0  0  3  0  0
   -2.9619    1.8544    1.0187 C   0  0  0  0  0  0  0  0  0  4  0  0
   -1.7174    1.0416    1.1024 C   0  0  0  0  0  0  0  0  0  5  0  0
   -1.5055   -0.0228    0.4338 N   0  0  0  0  0  0  0  0  0  6  0  0
   -0.3450   -0.6237    0.6706 N   0  0  0  0  0  0  0  0  0  7  0  0
    0.3926    0.0186    1.5170 C   0  0  0  0  0  0  0  0  0  8  0  0
    1.6524   -0.2908    1.9329 N   0  0  0  0  0  0  0  0  0  9  0  0
    2.5347   -1.2792    1.5337 C   0  0  0  0  0  0  0  0  0 10  0  0
    3.6160   -1.3323    2.0802 O   0  0  0  0  0  0  0  0  0 11  0  0
    2.1324   -2.1871    0.4025 C   0  0  0  0  0  0  0  0  0 12  0  0
    2.5676   -1.5900   -0.9528 C   0  0  0  0  0  0  0  0  0 13  0  0
    1.5114   -0.8200   -1.5781 N   0  0  0  0  0  0  0  0  0 14  0  0
    0.5458   -1.4193   -2.3761 C   0  0  0  0  0  0  0  0  0 15  0  0
    0.5667   -2.5797   -2.6774 O   0  0  0  0  0  0  0  0  0 16  0  0
   -0.4566   -0.3604   -2.7394 C   0  0  0  0  0  0  0  0  0 17  0  0
   -0.6711   -0.3885   -3.7989 H   0  0  0  0  0  0  0  0  0 23  0  0
   -1.3730   -0.5705   -2.1791 H   0  0  0  0  0  0  0  0  0 24  0  0
    0.1753    0.9588   -2.2771 C   0  0  0  0  0  0  0  0  0 18  0  0
   -0.5193    1.5614   -1.6807 H   0  0  0  0  0  0  0  0  0 21  0  0
    0.5449    1.5548   -3.0978 H   0  0  0  0  0  0  0  0  0 22  0  0
    1.3415    0.5303   -1.4052 C   0  0  0  0  0  0  0  0  0 19  0  0
    2.0007    1.2185   -0.6668 O   0  0  0  0  0  0  0  0  0 20  0  0
    2.8217   -2.3957   -1.6412 H   0  0  0  0  0  0  0  0  0 25  0  0
    3.4365   -0.9448   -0.7986 H   0  0  0  0  0  0  0  0  0 26  0  0
    1.0512   -2.3650    0.3982 H   0  0  0  0  0  0  0  0  0 27  0  0
    2.6532   -3.1345    0.5556 H   0  0  0  0  0  0  0  0  0 28  0  0
    2.0439    0.3193    2.6358 H   0  0  0  0  0  0  0  0  0 29  0  0
   -0.3828    1.4704    2.1607 S   0  0  0  0  0  0  0  0  0 30  0  0
   -3.5930    1.4256    0.2434 H   0  0  0  0  0  0  0  0  0 31  0  0
   -2.7028    2.8750    0.7441 H   0  0  0  0  0  0  0  0  0 32  0  0
  1  2  1  0
  1  3  1  0
  1  4  1  0
  1  5  1  0
  5  6  1  0
  6  7  4  0
  7  8  4  0
  8  9  4  0
  9 10  1  0
 10 11  1  0
 11 12  2  0
 11 13  1  0
 13 14  1  0
 14 15  1  0
 15 16  1  0
 16 17  2  0
 16 18  1  0
 18 19  1  0
 18 20  1  0
 18 21  1  0
 21 22  1  0
 21 23  1  0
 21 24  1  0
 24 25  2  0
 14 26  1  0
 14 27  1  0
 13 28  1  0
 13 29  1  0
 10 30  1  0
  9 31  4  0
  5 32  1  0
  5 33  1  0
 31  6  4  0
 24 15  1  0
M  END
>  <sample_id>  (366)
train::CCc1nnc(NC(=O)CCN2C(=O)CCC2=O)s1__gen0002

>  <partition>  (366)
BAT_EXTERNAL_CONFIRM

>  <method>  (366)
BA_seed193

>  <candidate>  (366)
primary

$$$$
train::COc1cc(OC)cc(C(=O)_C=C2\Sc3ccccc3N2C)c1__gen0000
     RDKit          3D

 40 42  0  0  0  0  0  0  0  0999 V2000
    5.3216   -0.5581    2.3843 C   0  0  0  0  0  0  0  0  0  0  0  0
    5.2962    0.0717    3.2796 H   0  0  0  0  0  0  0  0  0  1  0  0
    4.2453   -0.2819    1.5246 O   0  0  0  0  0  0  0  0  0  2  0  0
    2.9844   -0.4639    1.9492 C   0  0  0  0  0  0  0  0  0  3  0  0
    1.9890   -0.1518    1.0450 C   0  0  0  0  0  0  0  0  0  4  0  0
    2.2883    0.2192    0.0754 H   0  0  0  0  0  0  0  0  0 37  0  0
    0.6448   -0.3279    1.3796 C   0  0  0  0  0  0  0  0  0  5  0  0
   -0.4757   -0.0069    0.4621 C   0  0  0  0  0  0  0  0  0 16  0  0
   -1.5870    0.2218    0.9169 O   0  0  0  0  0  0  0  0  0 17  0  0
   -0.1537   -0.1041   -0.9587 C   0  0  0  0  0  0  0  0  0 18  0  0
   -0.9412    0.1947   -2.0193 C   0  0  0  0  0  0  0  0  0 19  0  0
   -2.1307    0.8711   -2.0640 N   0  0  0  0  0  0  0  0  0 20  0  0
   -2.5723    1.7891   -1.0357 C   0  0  0  0  0  0  0  0  0 32  0  0
   -3.2290    1.2833   -0.3328 H   0  0  0  0  0  0  0  0  0 33  0  0
   -1.7015    2.1464   -0.4905 H   0  0  0  0  0  0  0  0  0 34  0  0
   -3.0781    2.6281   -1.5088 H   0  0  0  0  0  0  0  0  0 35  0  0
   -2.7183    0.9088   -3.3336 C   0  0  0  0  0  0  0  0  0 21  0  0
   -3.9735    1.4094   -3.6520 C   0  0  0  0  0  0  0  0  0 22  0  0
   -4.6205    1.8183   -2.8856 H   0  0  0  0  0  0  0  0  0 31  0  0
   -4.3732    1.3613   -4.9800 C   0  0  0  0  0  0  0  0  0 23  0  0
   -5.3551    1.7569   -5.2403 H   0  0  0  0  0  0  0  0  0 30  0  0
   -3.5738    0.8050   -5.9645 C   0  0  0  0  0  0  0  0  0 24  0  0
   -3.9129    0.8250   -6.9901 H   0  0  0  0  0  0  0  0  0 29  0  0
   -2.3336    0.2732   -5.6372 C   0  0  0  0  0  0  0  0  0 25  0  0
   -1.7148   -0.1631   -6.4021 H   0  0  0  0  0  0  0  0  0 28  0  0
   -1.9269    0.3096   -4.3114 C   0  0  0  0  0  0  0  0  0 26  0  0
   -0.4876   -0.3635   -3.6261 S   0  0  0  0  0  0  0  0  0 27  0  0
    0.7454   -0.6480   -1.2116 H   0  0  0  0  0  0  0  0  0 36  0  0
    0.3102   -0.7604    2.6580 C   0  0  0  0  0  0  0  0  0  6  0  0
   -0.7242   -0.8663    2.9372 H   0  0  0  0  0  0  0  0  0 15  0  0
    1.2985   -1.0819    3.5782 C   0  0  0  0  0  0  0  0  0  7  0  0
    0.8860   -1.4935    4.8065 O   0  0  0  0  0  0  0  0  0 10  0  0
    1.8243   -1.8302    5.7877 C   0  0  0  0  0  0  0  0  0 11  0  0
    2.4633   -2.6586    5.4729 H   0  0  0  0  0  0  0  0  0 12  0  0
    2.4389   -0.9660    6.0536 H   0  0  0  0  0  0  0  0  0 13  0  0
    1.2387   -2.1334    6.6590 H   0  0  0  0  0  0  0  0  0 14  0  0
    2.6397   -0.9186    3.2279 C   0  0  0  0  0  0  0  0  0  8  0  0
    3.4153   -1.1701    3.9418 H   0  0  0  0  0  0  0  0  0  9  0  0
    5.3262   -1.6030    2.6870 H   0  0  0  0  0  0  0  0  0 38  0  0
    6.2276   -0.3414    1.8177 H   0  0  0  0  0  0  0  0  0 39  0  0
  1  2  1  0
  1  3  1  0
  3  4  1  0
  4  5  4  0
  5  6  1  0
  5  7  4  0
  7  8  1  0
  8  9  2  0
  8 10  1  0
 10 11  2  0
 11 12  1  0
 12 13  1  0
 13 14  1  0
 13 15  1  0
 13 16  1  0
 12 17  1  0
 17 18  4  0
 18 19  1  0
 18 20  4  0
 20 21  1  0
 20 22  4  0
 22 23  1  0
 22 24  4  0
 24 25  1  0
 24 26  4  0
 26 27  1  0
 10 28  1  0
  7 29  4  0
 29 30  1  0
 29 31  4  0
 31 32  1  0
 32 33  1  0
 33 34  1  0
 33 35  1  0
 33 36  1  0
 31 37  4  0
 37 38  1  0
  1 39  1  0
  1 40  1  0
 37  4  4  0
 27 11  1  0
 26 17  4  0
M  END
>  <sample_id>  (367)
train::COc1cc(OC)cc(C(=O)_C=C2\Sc3ccccc3N2C)c1__gen0000

>  <partition>  (367)
BAT_EXTERNAL_CONFIRM

>  <method>  (367)
BA_seed193

>  <candidate>  (367)
primary

$$$$
train::COc1cc(OC)cc(C(=O)_C=C2\Sc3ccccc3N2C)c1__gen0001
     RDKit          3D

 40 42  0  0  0  0  0  0  0  0999 V2000
    2.9000    1.6138   -4.5898 C   0  0  0  0  0  0  0  0  0  0  0  0
    1.9196    2.0800   -4.5952 H   0  0  0  0  0  0  0  0  0  1  0  0
    3.6340    1.9488   -3.4449 O   0  0  0  0  0  0  0  0  0  2  0  0
    3.1419    1.5430   -2.2184 C   0  0  0  0  0  0  0  0  0  3  0  0
    1.9380    0.8939   -2.0335 C   0  0  0  0  0  0  0  0  0  4  0  0
    1.3078    0.6372   -2.8694 H   0  0  0  0  0  0  0  0  0 37  0  0
    1.5309    0.5536   -0.7494 C   0  0  0  0  0  0  0  0  0  5  0  0
    0.2424   -0.1802   -0.6409 C   0  0  0  0  0  0  0  0  0 16  0  0
   -0.1375   -0.8498   -1.5986 O   0  0  0  0  0  0  0  0  0 17  0  0
   -0.4711    0.0212    0.6114 C   0  0  0  0  0  0  0  0  0 18  0  0
   -1.6570   -0.5060    1.0546 C   0  0  0  0  0  0  0  0  0 19  0  0
   -2.5895   -1.3508    0.5620 N   0  0  0  0  0  0  0  0  0 20  0  0
   -2.5029   -2.0912   -0.6760 C   0  0  0  0  0  0  0  0  0 32  0  0
   -3.4407   -2.0369   -1.2039 H   0  0  0  0  0  0  0  0  0 33  0  0
   -1.7010   -1.6779   -1.2997 H   0  0  0  0  0  0  0  0  0 34  0  0
   -2.2441   -3.1281   -0.4804 H   0  0  0  0  0  0  0  0  0 35  0  0
   -3.6466   -1.6460    1.4186 C   0  0  0  0  0  0  0  0  0 21  0  0
   -4.6966   -2.5241    1.1781 C   0  0  0  0  0  0  0  0  0 22  0  0
   -4.7495   -3.0960    0.2578 H   0  0  0  0  0  0  0  0  0 31  0  0
   -5.6844   -2.6474    2.1380 C   0  0  0  0  0  0  0  0  0 23  0  0
   -6.4955   -3.3435    1.9631 H   0  0  0  0  0  0  0  0  0 30  0  0
   -5.6338   -1.9387    3.3263 C   0  0  0  0  0  0  0  0  0 24  0  0
   -6.4139   -2.0622    4.0535 H   0  0  0  0  0  0  0  0  0 29  0  0
   -4.5811   -1.0663    3.5831 C   0  0  0  0  0  0  0  0  0 25  0  0
   -4.5302   -0.5041    4.4941 H   0  0  0  0  0  0  0  0  0 28  0  0
   -3.6019   -0.9258    2.6021 C   0  0  0  0  0  0  0  0  0 26  0  0
   -2.1740    0.0700    2.6577 S   0  0  0  0  0  0  0  0  0 27  0  0
   -0.0097    0.7059    1.2854 H   0  0  0  0  0  0  0  0  0 36  0  0
    2.3518    0.8392    0.3451 C   0  0  0  0  0  0  0  0  0  6  0  0
    2.0755    0.5543    1.3418 H   0  0  0  0  0  0  0  0  0 15  0  0
    3.5548    1.5063    0.1643 C   0  0  0  0  0  0  0  0  0  7  0  0
    4.2659    1.7460    1.2633 O   0  0  0  0  0  0  0  0  0 10  0  0
    5.5178    2.3893    1.1740 C   0  0  0  0  0  0  0  0  0 11  0  0
    5.9021    2.4535    2.1862 H   0  0  0  0  0  0  0  0  0 12  0  0
    5.4018    3.3994    0.7733 H   0  0  0  0  0  0  0  0  0 13  0  0
    6.2081    1.8201    0.5513 H   0  0  0  0  0  0  0  0  0 14  0  0
    3.9403    1.8847   -1.1316 C   0  0  0  0  0  0  0  0  0  8  0  0
    4.8663    2.3898   -1.3186 H   0  0  0  0  0  0  0  0  0  9  0  0
    3.4868    1.9857   -5.4370 H   0  0  0  0  0  0  0  0  0 38  0  0
    2.7751    0.5396   -4.6977 H   0  0  0  0  0  0  0  0  0 39  0  0
  1  2  1  0
  1  3  1  0
  3  4  1  0
  4  5  4  0
  5  6  1  0
  5  7  4  0
  7  8  1  0
  8  9  2  0
  8 10  1  0
 10 11  2  0
 11 12  1  0
 12 13  1  0
 13 14  1  0
 13 15  1  0
 13 16  1  0
 12 17  1  0
 17 18  4  0
 18 19  1  0
 18 20  4  0
 20 21  1  0
 20 22  4  0
 22 23  1  0
 22 24  4  0
 24 25  1  0
 24 26  4  0
 26 27  1  0
 10 28  1  0
  7 29  4  0
 29 30  1  0
 29 31  4  0
 31 32  1  0
 32 33  1  0
 33 34  1  0
 33 35  1  0
 33 36  1  0
 31 37  4  0
 37 38  1  0
  1 39  1  0
  1 40  1  0
 37  4  4  0
 27 11  1  0
 26 17  4  0
M  END
>  <sample_id>  (368)
train::COc1cc(OC)cc(C(=O)_C=C2\Sc3ccccc3N2C)c1__gen0001

>  <partition>  (368)
BAT_EXTERNAL_CONFIRM

>  <method>  (368)
BA_seed193

>  <candidate>  (368)
primary

$$$$
train::COc1cc(OC)cc(C(=O)_C=C2\Sc3ccccc3N2C)c1__gen0002
     RDKit          3D

 40 42  0  0  0  0  0  0  0  0999 V2000
    3.2010    2.7933    2.3502 C   0  0  0  0  0  0  0  0  0  0  0  0
    2.1961    3.2179    2.4368 H   0  0  0  0  0  0  0  0  0  1  0  0
    3.3284    1.6032    3.0984 O   0  0  0  0  0  0  0  0  0  2  0  0
    2.5296    0.5425    2.7907 C   0  0  0  0  0  0  0  0  0  3  0  0
    1.5651    0.5395    1.7922 C   0  0  0  0  0  0  0  0  0  4  0  0
    1.4034    1.4178    1.1799 H   0  0  0  0  0  0  0  0  0 37  0  0
    0.8298   -0.6138    1.5523 C   0  0  0  0  0  0  0  0  0  5  0  0
   -0.2275   -0.6715    0.5259 C   0  0  0  0  0  0  0  0  0 16  0  0
   -1.1164   -1.5217    0.5577 O   0  0  0  0  0  0  0  0  0 17  0  0
   -0.2079    0.2542   -0.5754 C   0  0  0  0  0  0  0  0  0 18  0  0
   -1.2098    0.0898   -1.4941 C   0  0  0  0  0  0  0  0  0 19  0  0
   -1.4040    0.8243   -2.6288 N   0  0  0  0  0  0  0  0  0 20  0  0
   -0.5111    1.9007   -2.9707 C   0  0  0  0  0  0  0  0  0 32  0  0
   -0.5650    2.6785   -2.2242 H   0  0  0  0  0  0  0  0  0 33  0  0
   -0.8217    2.3160   -3.9331 H   0  0  0  0  0  0  0  0  0 34  0  0
    0.5077    1.5315   -3.0505 H   0  0  0  0  0  0  0  0  0 35  0  0
   -2.5274    0.4351   -3.3485 C   0  0  0  0  0  0  0  0  0 21  0  0
   -3.0087    1.0008   -4.5175 C   0  0  0  0  0  0  0  0  0 22  0  0
   -2.5064    1.8431   -4.9945 H   0  0  0  0  0  0  0  0  0 31  0  0
   -4.1383    0.4643   -5.1005 C   0  0  0  0  0  0  0  0  0 23  0  0
   -4.5108    0.8962   -6.0250 H   0  0  0  0  0  0  0  0  0 30  0  0
   -4.7963   -0.6061   -4.5351 C   0  0  0  0  0  0  0  0  0 24  0  0
   -5.6842   -1.0060   -5.0077 H   0  0  0  0  0  0  0  0  0 29  0  0
   -4.3377   -1.1702   -3.3482 C   0  0  0  0  0  0  0  0  0 25  0  0
   -4.8389   -2.0130   -2.9101 H   0  0  0  0  0  0  0  0  0 28  0  0
   -3.1994   -0.6391   -2.7762 C   0  0  0  0  0  0  0  0  0 26  0  0
   -2.4295   -1.1674   -1.2756 S   0  0  0  0  0  0  0  0  0 27  0  0
    0.5656    0.9862   -0.6974 H   0  0  0  0  0  0  0  0  0 36  0  0
    1.0130   -1.7367    2.3402 C   0  0  0  0  0  0  0  0  0  6  0  0
    0.4160   -2.6135    2.1776 H   0  0  0  0  0  0  0  0  0 15  0  0
    1.9686   -1.7423    3.3475 C   0  0  0  0  0  0  0  0  0  7  0  0
    2.1004   -2.8903    4.0566 O   0  0  0  0  0  0  0  0  0 10  0  0
    3.0282   -2.9562    5.0979 C   0  0  0  0  0  0  0  0  0 11  0  0
    2.9577   -3.9550    5.5211 H   0  0  0  0  0  0  0  0  0 12  0  0
    4.0511   -2.7943    4.7373 H   0  0  0  0  0  0  0  0  0 13  0  0
    2.8133   -2.2107    5.8802 H   0  0  0  0  0  0  0  0  0 14  0  0
    2.7339   -0.5943    3.5657 C   0  0  0  0  0  0  0  0  0  8  0  0
    3.4847   -0.5393    4.3407 H   0  0  0  0  0  0  0  0  0  9  0  0
    3.9171    3.4837    2.7710 H   0  0  0  0  0  0  0  0  0 38  0  0
    3.4306    2.6226    1.2930 H   0  0  0  0  0  0  0  0  0 39  0  0
  1  2  1  0
  1  3  1  0
  3  4  1  0
  4  5  4  0
  5  6  1  0
  5  7  4  0
  7  8  1  0
  8  9  2  0
  8 10  1  0
 10 11  2  0
 11 12  1  0
 12 13  1  0
 13 14  1  0
 13 15  1  0
 13 16  1  0
 12 17  1  0
 17 18  4  0
 18 19  1  0
 18 20  4  0
 20 21  1  0
 20 22  4  0
 22 23  1  0
 22 24  4  0
 24 25  1  0
 24 26  4  0
 26 27  1  0
 10 28  1  0
  7 29  4  0
 29 30  1  0
 29 31  4  0
 31 32  1  0
 32 33  1  0
 33 34  1  0
 33 35  1  0
 33 36  1  0
 31 37  4  0
 37 38  1  0
  1 39  1  0
  1 40  1  0
 37  4  4  0
 27 11  1  0
 26 17  4  0
M  END
>  <sample_id>  (369)
train::COc1cc(OC)cc(C(=O)_C=C2\Sc3ccccc3N2C)c1__gen0002

>  <partition>  (369)
BAT_EXTERNAL_CONFIRM

>  <method>  (369)
BA_seed193

>  <candidate>  (369)
primary

$$$$
train::O=C(O)CSc1nc(-c2ccccc2)nc2c1oc1ccccc12__gen0000
     RDKit          3D

 36 39  0  0  0  0  0  0  0  0999 V2000
   -3.3605    3.1204    1.2099 O   0  0  0  0  0  0  0  0  0  0  0  0
   -2.5817    3.0974    0.2856 C   0  0  0  0  0  0  0  0  0  1  0  0
   -2.7690    2.4056   -0.8183 O   0  0  0  0  0  0  0  0  0  2  0  0
   -3.6004    1.9052   -0.7990 H   0  0  0  0  0  0  0  0  0  3  0  0
   -1.3129    3.9298    0.2688 C   0  0  0  0  0  0  0  0  0  4  0  0
   -1.5697    4.9174   -0.1011 H   0  0  0  0  0  0  0  0  0  5  0  0
   -0.9035    4.0106    1.2732 H   0  0  0  0  0  0  0  0  0  6  0  0
   -0.0409    3.3433   -0.8880 S   0  0  0  0  0  0  0  0  0  7  0  0
    0.1639    1.6570   -0.4646 C   0  0  0  0  0  0  0  0  0  8  0  0
    0.8483    0.9487   -1.3446 N   0  0  0  0  0  0  0  0  0  9  0  0
    1.0562   -0.3659   -1.1620 C   0  0  0  0  0  0  0  0  0 10  0  0
    1.8272   -1.0621   -2.1780 C   0  0  0  0  0  0  0  0  0 25  0  0
    2.3024   -0.3823   -3.2909 C   0  0  0  0  0  0  0  0  0 26  0  0
    2.1115    0.6740   -3.3888 H   0  0  0  0  0  0  0  0  0 35  0  0
    3.0334   -1.0510   -4.2605 C   0  0  0  0  0  0  0  0  0 27  0  0
    3.4077   -0.5140   -5.1201 H   0  0  0  0  0  0  0  0  0 34  0  0
    3.2884   -2.4102   -4.1236 C   0  0  0  0  0  0  0  0  0 28  0  0
    3.8491   -2.9286   -4.8753 H   0  0  0  0  0  0  0  0  0 33  0  0
    2.8134   -3.0991   -3.0198 C   0  0  0  0  0  0  0  0  0 29  0  0
    3.0026   -4.1539   -2.9139 H   0  0  0  0  0  0  0  0  0 32  0  0
    2.0803   -2.4287   -2.0545 C   0  0  0  0  0  0  0  0  0 30  0  0
    1.7033   -2.9468   -1.1837 H   0  0  0  0  0  0  0  0  0 31  0  0
    0.6281   -1.0578   -0.1268 N   0  0  0  0  0  0  0  0  0 11  0  0
   -0.0451   -0.3646    0.7935 C   0  0  0  0  0  0  0  0  0 12  0  0
   -0.2984    1.0171    0.6771 C   0  0  0  0  0  0  0  0  0 13  0  0
   -0.9904    1.4889    1.7545 O   0  0  0  0  0  0  0  0  0 14  0  0
   -1.2071    0.4209    2.5625 C   0  0  0  0  0  0  0  0  0 15  0  0
   -1.8821    0.4347    3.7679 C   0  0  0  0  0  0  0  0  0 16  0  0
   -2.3141    1.3401    4.1486 H   0  0  0  0  0  0  0  0  0 24  0  0
   -1.9933   -0.7647    4.4431 C   0  0  0  0  0  0  0  0  0 17  0  0
   -2.5169   -0.7981    5.3886 H   0  0  0  0  0  0  0  0  0 23  0  0
   -1.4368   -1.9444    3.9374 C   0  0  0  0  0  0  0  0  0 18  0  0
   -1.5409   -2.8582    4.4977 H   0  0  0  0  0  0  0  0  0 22  0  0
   -0.7666   -1.9564    2.7408 C   0  0  0  0  0  0  0  0  0 19  0  0
   -0.3356   -2.8626    2.3328 H   0  0  0  0  0  0  0  0  0 21  0  0
   -0.6498   -0.7617    2.0318 C   0  0  0  0  0  0  0  0  0 20  0  0
  1  2  2  0
  2  3  1  0
  3  4  1  0
  2  5  1  0
  5  6  1  0
  5  7  1  0
  5  8  1  0
  8  9  1  0
  9 10  4  0
 10 11  4  0
 11 12  1  0
 12 13  4  0
 13 14  1  0
 13 15  4  0
 15 16  1  0
 15 17  4  0
 17 18  1  0
 17 19  4  0
 19 20  1  0
 19 21  4  0
 21 22  1  0
 11 23  4  0
 23 24  4  0
 24 25  4  0
 25 26  4  0
 26 27  4  0
 27 28  4  0
 28 29  1  0
 28 30  4  0
 30 31  1  0
 30 32  4  0
 32 33  1  0
 32 34  4  0
 34 35  1  0
 34 36  4  0
 25  9  4  0
 36 27  4  0
 21 12  4  0
 36 24  4  0
M  END
>  <sample_id>  (370)
train::O=C(O)CSc1nc(-c2ccccc2)nc2c1oc1ccccc12__gen0000

>  <partition>  (370)
BAT_EXTERNAL_CONFIRM

>  <method>  (370)
BA_seed193

>  <candidate>  (370)
primary

$$$$
train::O=C(O)CSc1nc(-c2ccccc2)nc2c1oc1ccccc12__gen0001
     RDKit          3D

 36 39  0  0  0  0  0  0  0  0999 V2000
    4.9705    3.1375   -0.4018 O   0  0  0  0  0  0  0  0  0  0  0  0
    4.4800    2.5638    0.5262 C   0  0  0  0  0  0  0  0  0  1  0  0
    4.9917    2.6203    1.7638 O   0  0  0  0  0  0  0  0  0  2  0  0
    5.7956    3.1622    1.7784 H   0  0  0  0  0  0  0  0  0  3  0  0
    3.2625    1.6837    0.5060 C   0  0  0  0  0  0  0  0  0  4  0  0
    3.5262    0.6800    0.8426 H   0  0  0  0  0  0  0  0  0  5  0  0
    2.4827    2.0662    1.1640 H   0  0  0  0  0  0  0  0  0  6  0  0
    2.5566    1.5716   -1.1701 S   0  0  0  0  0  0  0  0  0  7  0  0
    1.0830    0.7121   -0.7773 C   0  0  0  0  0  0  0  0  0  8  0  0
    0.8650    0.3678    0.4796 N   0  0  0  0  0  0  0  0  0  9  0  0
   -0.2454   -0.3111    0.8132 C   0  0  0  0  0  0  0  0  0 10  0  0
   -0.4211   -0.6428    2.2199 C   0  0  0  0  0  0  0  0  0 25  0  0
    0.5316   -0.2640    3.1554 C   0  0  0  0  0  0  0  0  0 26  0  0
    1.4058    0.2947    2.8585 H   0  0  0  0  0  0  0  0  0 35  0  0
    0.3587   -0.5795    4.4891 C   0  0  0  0  0  0  0  0  0 27  0  0
    1.0880   -0.2940    5.2342 H   0  0  0  0  0  0  0  0  0 34  0  0
   -0.7635   -1.2972    4.9003 C   0  0  0  0  0  0  0  0  0 28  0  0
   -0.8990   -1.5459    5.9440 H   0  0  0  0  0  0  0  0  0 33  0  0
   -1.7047   -1.6938    3.9586 C   0  0  0  0  0  0  0  0  0 29  0  0
   -2.5907   -2.2327    4.2827 H   0  0  0  0  0  0  0  0  0 32  0  0
   -1.5374   -1.3545    2.6301 C   0  0  0  0  0  0  0  0  0 30  0  0
   -2.2652   -1.6574    1.8917 H   0  0  0  0  0  0  0  0  0 31  0  0
   -1.1842   -0.6957   -0.0390 N   0  0  0  0  0  0  0  0  0 11  0  0
   -0.9742   -0.3435   -1.3111 C   0  0  0  0  0  0  0  0  0 12  0  0
    0.1525    0.3604   -1.7419 C   0  0  0  0  0  0  0  0  0 13  0  0
    0.1431    0.5905   -3.0790 O   0  0  0  0  0  0  0  0  0 14  0  0
   -1.0273    0.0465   -3.5331 C   0  0  0  0  0  0  0  0  0 15  0  0
   -1.4637    0.0285   -4.8551 C   0  0  0  0  0  0  0  0  0 16  0  0
   -0.8787    0.4964   -5.6297 H   0  0  0  0  0  0  0  0  0 24  0  0
   -2.6744   -0.5912   -5.1029 C   0  0  0  0  0  0  0  0  0 17  0  0
   -3.0432   -0.6166   -6.1206 H   0  0  0  0  0  0  0  0  0 23  0  0
   -3.4095   -1.1931   -4.0879 C   0  0  0  0  0  0  0  0  0 18  0  0
   -4.3462   -1.6677   -4.3303 H   0  0  0  0  0  0  0  0  0 22  0  0
   -2.9723   -1.1902   -2.7820 C   0  0  0  0  0  0  0  0  0 19  0  0
   -3.5363   -1.6517   -1.9833 H   0  0  0  0  0  0  0  0  0 21  0  0
   -1.7563   -0.5598   -2.4931 C   0  0  0  0  0  0  0  0  0 20  0  0
  1  2  2  0
  2  3  1  0
  3  4  1  0
  2  5  1  0
  5  6  1  0
  5  7  1  0
  5  8  1  0
  8  9  1  0
  9 10  4  0
 10 11  4  0
 11 12  1  0
 12 13  4  0
 13 14  1  0
 13 15  4  0
 15 16  1  0
 15 17  4  0
 17 18  1  0
 17 19  4  0
 19 20  1  0
 19 21  4  0
 21 22  1  0
 11 23  4  0
 23 24  4  0
 24 25  4  0
 25 26  4  0
 26 27  4  0
 27 28  4  0
 28 29  1  0
 28 30  4  0
 30 31  1  0
 30 32  4  0
 32 33  1  0
 32 34  4  0
 34 35  1  0
 34 36  4  0
 25  9  4  0
 36 27  4  0
 21 12  4  0
 36 24  4  0
M  END
>  <sample_id>  (371)
train::O=C(O)CSc1nc(-c2ccccc2)nc2c1oc1ccccc12__gen0001

>  <partition>  (371)
BAT_EXTERNAL_CONFIRM

>  <method>  (371)
BA_seed193

>  <candidate>  (371)
primary

$$$$
train::O=C(O)CSc1nc(-c2ccccc2)nc2c1oc1ccccc12__gen0002
     RDKit          3D

 36 39  0  0  0  0  0  0  0  0999 V2000
    2.0937    3.0141    4.4255 O   0  0  0  0  0  0  0  0  0  0  0  0
    1.4831    2.4653    3.5623 C   0  0  0  0  0  0  0  0  0  1  0  0
    1.5132    2.8080    2.2855 O   0  0  0  0  0  0  0  0  0  2  0  0
    1.0533    2.1168    1.7155 H   0  0  0  0  0  0  0  0  0  3  0  0
    0.5899    1.2631    3.8286 C   0  0  0  0  0  0  0  0  0  4  0  0
    0.5292    1.1644    4.9035 H   0  0  0  0  0  0  0  0  0  5  0  0
   -0.3932    1.4093    3.3613 H   0  0  0  0  0  0  0  0  0  6  0  0
    1.2640   -0.3036    3.2126 S   0  0  0  0  0  0  0  0  0  7  0  0
    0.6862   -0.3265    1.5475 C   0  0  0  0  0  0  0  0  0  8  0  0
    0.2120    0.7809    0.9876 N   0  0  0  0  0  0  0  0  0  9  0  0
   -0.2804    0.7166   -0.2615 C   0  0  0  0  0  0  0  0  0 10  0  0
   -0.8414    1.9500   -0.8552 C   0  0  0  0  0  0  0  0  0 25  0  0
   -1.6044    1.8648   -2.0137 C   0  0  0  0  0  0  0  0  0 26  0  0
   -1.7571    0.8918   -2.4492 H   0  0  0  0  0  0  0  0  0 35  0  0
   -2.1468    2.9926   -2.5699 C   0  0  0  0  0  0  0  0  0 27  0  0
   -2.7447    2.9134   -3.4809 H   0  0  0  0  0  0  0  0  0 34  0  0
   -1.9395    4.2319   -1.9958 C   0  0  0  0  0  0  0  0  0 28  0  0
   -2.3800    5.1192   -2.4312 H   0  0  0  0  0  0  0  0  0 33  0  0
   -1.1644    4.3305   -0.8492 C   0  0  0  0  0  0  0  0  0 29  0  0
   -0.9995    5.2971   -0.3899 H   0  0  0  0  0  0  0  0  0 32  0  0
   -0.6276    3.1991   -0.2674 C   0  0  0  0  0  0  0  0  0 30  0  0
   -0.0163    3.3014    0.6118 H   0  0  0  0  0  0  0  0  0 31  0  0
   -0.3311   -0.3586   -1.0085 N   0  0  0  0  0  0  0  0  0 11  0  0
    0.1743   -1.4817   -0.4792 C   0  0  0  0  0  0  0  0  0 12  0  0
    0.6909   -1.5077    0.8324 C   0  0  0  0  0  0  0  0  0 13  0  0
    1.1468   -2.7329    1.1646 O   0  0  0  0  0  0  0  0  0 14  0  0
    0.8960   -3.5186    0.0779 C   0  0  0  0  0  0  0  0  0 15  0  0
    1.1984   -4.8765   -0.0409 C   0  0  0  0  0  0  0  0  0 16  0  0
    1.6355   -5.4166    0.7665 H   0  0  0  0  0  0  0  0  0 24  0  0
    0.8711   -5.4908   -1.2351 C   0  0  0  0  0  0  0  0  0 17  0  0
    1.0631   -6.5473   -1.3691 H   0  0  0  0  0  0  0  0  0 23  0  0
    0.2732   -4.7892   -2.2794 C   0  0  0  0  0  0  0  0  0 18  0  0
    0.0422   -5.3131   -3.1975 H   0  0  0  0  0  0  0  0  0 22  0  0
   -0.0120   -3.4560   -2.1729 C   0  0  0  0  0  0  0  0  0 19  0  0
   -0.4713   -2.8957   -2.9644 H   0  0  0  0  0  0  0  0  0 21  0  0
    0.2934   -2.8154   -0.9721 C   0  0  0  0  0  0  0  0  0 20  0  0
  1  2  2  0
  2  3  1  0
  3  4  1  0
  2  5  1  0
  5  6  1  0
  5  7  1  0
  5  8  1  0
  8  9  1  0
  9 10  4  0
 10 11  4  0
 11 12  1  0
 12 13  4  0
 13 14  1  0
 13 15  4  0
 15 16  1  0
 15 17  4  0
 17 18  1  0
 17 19  4  0
 19 20  1  0
 19 21  4  0
 21 22  1  0
 11 23  4  0
 23 24  4  0
 24 25  4  0
 25 26  4  0
 26 27  4  0
 27 28  4  0
 28 29  1  0
 28 30  4  0
 30 31  1  0
 30 32  4  0
 32 33  1  0
 32 34  4  0
 34 35  1  0
 34 36  4  0
 25  9  4  0
 36 27  4  0
 21 12  4  0
 36 24  4  0
M  END
>  <sample_id>  (372)
train::O=C(O)CSc1nc(-c2ccccc2)nc2c1oc1ccccc12__gen0002

>  <partition>  (372)
BAT_EXTERNAL_CONFIRM

>  <method>  (372)
BA_seed193

>  <candidate>  (372)
primary

$$$$
train::CCOC(=O)C1CCCN(C(=O)C2CCN(c3nnc(-n4cccc4)s3)CC2)C1__gen0000
     RDKit          3D

 56 59  0  0  0  0  0  0  0  0999 V2000
   -2.0626   -3.5318    0.0354 C   0  0  0  0  0  0  0  0  0  0  0  0
   -1.6142   -4.0536    1.3906 C   0  0  0  0  0  0  0  0  0  1  0  0
   -2.3999   -4.6737    1.8456 H   0  0  0  0  0  0  0  0  0  2  0  0
   -0.6939   -4.6367    1.3067 H   0  0  0  0  0  0  0  0  0  3  0  0
   -1.2924   -2.9855    2.3010 O   0  0  0  0  0  0  0  0  0  4  0  0
   -2.2698   -2.5361    3.0743 C   0  0  0  0  0  0  0  0  0  5  0  0
   -3.4129   -2.9104    3.0163 O   0  0  0  0  0  0  0  0  0  6  0  0
   -1.8054   -1.5029    4.0898 C   0  0  1  0  0  0  0  0  0  7  0  0
   -2.7292   -1.1472    4.5617 H   0  0  0  0  0  0  0  0  0  8  0  0
   -0.8907   -2.1043    5.1679 C   0  0  0  0  0  0  0  0  0  9  0  0
   -1.3122   -3.0429    5.5274 H   0  0  0  0  0  0  0  0  0 51  0  0
   -0.8380   -1.4019    6.0093 H   0  0  0  0  0  0  0  0  0 52  0  0
    0.5216   -2.3451    4.6183 C   0  0  0  0  0  0  0  0  0 10  0  0
    1.1865   -2.6696    5.4184 H   0  0  0  0  0  0  0  0  0 49  0  0
    0.4957   -3.1227    3.8565 H   0  0  0  0  0  0  0  0  0 50  0  0
    1.0753   -1.0620    4.0038 C   0  0  0  0  0  0  0  0  0 11  0  0
    2.0554   -1.2353    3.5604 H   0  0  0  0  0  0  0  0  0 47  0  0
    1.1658   -0.2826    4.7665 H   0  0  0  0  0  0  0  0  0 48  0  0
    0.1989   -0.5831    2.9546 N   0  0  0  0  0  0  0  0  0 12  0  0
    0.6357   -0.6150    1.6819 C   0  0  0  0  0  0  0  0  0 13  0  0
    1.7775   -0.9446    1.4185 O   0  0  0  0  0  0  0  0  0 14  0  0
   -0.3254   -0.1588    0.5739 C   0  0  1  0  0  0  0  0  0 15  0  0
   -1.3088   -0.6309    0.7217 H   0  0  0  0  0  0  0  0  0 16  0  0
   -0.4443    1.3724    0.5744 C   0  0  0  0  0  0  0  0  0 17  0  0
   -0.8567    1.7361    1.5219 H   0  0  0  0  0  0  0  0  0 18  0  0
    0.5502    1.8114    0.4521 H   0  0  0  0  0  0  0  0  0 43  0  0
   -1.3356    1.8261   -0.5900 C   0  0  0  0  0  0  0  0  0 19  0  0
   -1.3613    2.9164   -0.6578 H   0  0  0  0  0  0  0  0  0 41  0  0
   -2.3537    1.4391   -0.4557 H   0  0  0  0  0  0  0  0  0 42  0  0
   -0.8188    1.3247   -1.8480 N   0  0  0  0  0  0  0  0  0 20  0  0
   -0.0191    2.0974   -2.5637 C   0  0  0  0  0  0  0  0  0 21  0  0
    0.0637    3.4007   -2.4369 N   0  0  0  0  0  0  0  0  0 22  0  0
    0.8818    3.9733   -3.3252 N   0  0  0  0  0  0  0  0  0 23  0  0
    1.4428    3.1527   -4.1297 C   0  0  0  0  0  0  0  0  0 24  0  0
    2.3237    3.5203   -5.1123 N   0  0  0  0  0  0  0  0  0 25  0  0
    3.0151    2.6950   -5.9404 C   0  0  0  0  0  0  0  0  0 26  0  0
    2.9222    1.6227   -5.8599 H   0  0  0  0  0  0  0  0  0 33  0  0
    3.7776    3.4503   -6.7798 C   0  0  0  0  0  0  0  0  0 27  0  0
    4.4381    3.0759   -7.5438 H   0  0  0  0  0  0  0  0  0 32  0  0
    3.5278    4.8004   -6.4601 C   0  0  0  0  0  0  0  0  0 28  0  0
    3.9595    5.6476   -6.9449 H   0  0  0  0  0  0  0  0  0 31  0  0
    2.6261    4.8133   -5.4402 C   0  0  0  0  0  0  0  0  0 29  0  0
    2.1774    5.6337   -4.9128 H   0  0  0  0  0  0  0  0  0 30  0  0
    1.0168    1.4579   -3.8521 S   0  0  0  0  0  0  0  0  0 34  0  0
   -0.7357   -0.1180   -1.8966 C   0  0  0  0  0  0  0  0  0 35  0  0
   -1.7514   -0.5220   -1.7487 H   0  0  0  0  0  0  0  0  0 36  0  0
   -0.3847   -0.4402   -2.8792 H   0  0  0  0  0  0  0  0  0 40  0  0
    0.1826   -0.6347   -0.7860 C   0  0  0  0  0  0  0  0  0 37  0  0
    0.2286   -1.7251   -0.8003 H   0  0  0  0  0  0  0  0  0 38  0  0
    1.1968   -0.2617   -0.9363 H   0  0  0  0  0  0  0  0  0 39  0  0
   -1.1236   -0.2879    3.4457 C   0  0  0  0  0  0  0  0  0 44  0  0
   -1.0218    0.4900    4.2275 H   0  0  0  0  0  0  0  0  0 45  0  0
   -1.7589    0.1115    2.6593 H   0  0  0  0  0  0  0  0  0 46  0  0
   -2.9627   -2.9245    0.1515 H   0  0  0  0  0  0  0  0  0 53  0  0
   -2.2864   -4.3582   -0.6241 H   0  0  0  0  0  0  0  0  0 54  0  0
   -1.2728   -2.9198   -0.4085 H   0  0  0  0  0  0  0  0  0 55  0  0
  1  2  1  0
  2  3  1  0
  2  4  1  0
  2  5  1  0
  5  6  1  0
  6  7  2  0
  6  8  1  0
  8  9  1  6
  8 10  1  0
 10 11  1  0
 10 12  1  0
 10 13  1  0
 13 14  1  0
 13 15  1  0
 13 16  1  0
 16 17  1  0
 16 18  1  0
 16 19  1  0
 19 20  1  0
 20 21  2  0
 20 22  1  0
 22 23  1  1
 22 24  1  0
 24 25  1  0
 24 26  1  0
 24 27  1  0
 27 28  1  0
 27 29  1  0
 27 30  1  0
 30 31  1  0
 31 32  4  0
 32 33  4  0
 33 34  4  0
 34 35  1  0
 35 36  4  0
 36 37  1  0
 36 38  4  0
 38 39  1  0
 38 40  4  0
 40 41  1  0
 40 42  4  0
 42 43  1  0
 34 44  4  0
 30 45  1  0
 45 46  1  0
 45 47  1  0
 45 48  1  0
 48 49  1  0
 48 50  1  0
 19 51  1  0
 51 52  1  0
 51 53  1  0
  1 54  1  0
  1 55  1  0
  1 56  1  0
 51  8  1  0
 48 22  1  0
 44 31  4  0
 42 35  4  0
M  END
>  <sample_id>  (373)
train::CCOC(=O)C1CCCN(C(=O)C2CCN(c3nnc(-n4cccc4)s3)CC2)C1__gen0000

>  <partition>  (373)
BAT_EXTERNAL_CONFIRM

>  <method>  (373)
BA_seed193

>  <candidate>  (373)
primary

$$$$
train::CCOC(=O)C1CCCN(C(=O)C2CCN(c3nnc(-n4cccc4)s3)CC2)C1__gen0001
     RDKit          3D

 56 59  0  0  0  0  0  0  0  0999 V2000
    4.4384    2.2808   -0.0048 C   0  0  0  0  0  0  0  0  0  0  0  0
    3.2461    2.6669   -0.8554 C   0  0  0  0  0  0  0  0  0  1  0  0
    3.4950    3.4987   -1.5203 H   0  0  0  0  0  0  0  0  0  2  0  0
    2.3993    2.9601   -0.2247 H   0  0  0  0  0  0  0  0  0  3  0  0
    2.7871    1.5635   -1.6315 O   0  0  0  0  0  0  0  0  0  4  0  0
    3.2757    1.4558   -2.8631 C   0  0  0  0  0  0  0  0  0  5  0  0
    4.1159    2.1783   -3.3240 O   0  0  0  0  0  0  0  0  0  6  0  0
    2.6780    0.2890   -3.6522 C   0  0  2  0  0  0  0  0  0  7  0  0
    3.4830   -0.4470   -3.7573 H   0  0  0  0  0  0  0  0  0  8  0  0
    2.2902    0.8156   -5.0380 C   0  0  0  0  0  0  0  0  0  9  0  0
    3.1150    1.3704   -5.4730 H   0  0  0  0  0  0  0  0  0 51  0  0
    2.0498   -0.0294   -5.6888 H   0  0  0  0  0  0  0  0  0 52  0  0
    1.0613    1.7251   -4.8953 C   0  0  0  0  0  0  0  0  0 10  0  0
    1.3325    2.6090   -4.3055 H   0  0  0  0  0  0  0  0  0 49  0  0
    0.7207    2.0642   -5.8826 H   0  0  0  0  0  0  0  0  0 50  0  0
   -0.0823    0.9888   -4.1980 C   0  0  0  0  0  0  0  0  0 11  0  0
   -0.9246    1.6517   -4.0367 H   0  0  0  0  0  0  0  0  0 47  0  0
   -0.4170    0.1300   -4.8273 H   0  0  0  0  0  0  0  0  0 48  0  0
    0.3402    0.4740   -2.9070 N   0  0  0  0  0  0  0  0  0 12  0  0
   -0.1413    1.0585   -1.7847 C   0  0  0  0  0  0  0  0  0 13  0  0
   -0.8870    2.0211   -1.8706 O   0  0  0  0  0  0  0  0  0 14  0  0
    0.1951    0.3998   -0.4510 C   0  0  1  0  0  0  0  0  0 15  0  0
    1.2818    0.2902   -0.4135 H   0  0  0  0  0  0  0  0  0 16  0  0
   -0.1951    1.3007    0.7418 C   0  0  0  0  0  0  0  0  0 17  0  0
    0.1493    2.3174    0.5484 H   0  0  0  0  0  0  0  0  0 18  0  0
    0.2824    0.9271    1.6398 H   0  0  0  0  0  0  0  0  0 43  0  0
   -1.7159    1.3235    0.9408 C   0  0  0  0  0  0  0  0  0 19  0  0
   -1.9691    1.8901    1.8449 H   0  0  0  0  0  0  0  0  0 41  0  0
   -2.1894    1.7866    0.0760 H   0  0  0  0  0  0  0  0  0 42  0  0
   -2.2216   -0.0206    1.0808 N   0  0  0  0  0  0  0  0  0 20  0  0
   -2.3362   -0.5526    2.3020 C   0  0  0  0  0  0  0  0  0 21  0  0
   -2.1605    0.0828    3.4138 N   0  0  0  0  0  0  0  0  0 22  0  0
   -2.3952   -0.6536    4.5082 N   0  0  0  0  0  0  0  0  0 23  0  0
   -2.7656   -1.8497    4.2565 C   0  0  0  0  0  0  0  0  0 24  0  0
   -3.0782   -2.7863    5.2131 N   0  0  0  0  0  0  0  0  0 25  0  0
   -3.4922   -4.0632    5.0027 C   0  0  0  0  0  0  0  0  0 26  0  0
   -3.6328   -4.4522    4.0084 H   0  0  0  0  0  0  0  0  0 33  0  0
   -3.6956   -4.6561    6.2082 C   0  0  0  0  0  0  0  0  0 27  0  0
   -4.0337   -5.6590    6.3768 H   0  0  0  0  0  0  0  0  0 32  0  0
   -3.3757   -3.7043    7.2021 C   0  0  0  0  0  0  0  0  0 28  0  0
   -3.4312   -3.8473    8.2687 H   0  0  0  0  0  0  0  0  0 31  0  0
   -3.0070   -2.5552    6.5638 C   0  0  0  0  0  0  0  0  0 29  0  0
   -2.6807   -1.6109    6.9455 H   0  0  0  0  0  0  0  0  0 30  0  0
   -2.8477   -2.2411    2.5210 S   0  0  0  0  0  0  0  0  0 34  0  0
   -1.9772   -0.8345   -0.0801 C   0  0  0  0  0  0  0  0  0 35  0  0
   -2.4312   -1.8165    0.0614 H   0  0  0  0  0  0  0  0  0 36  0  0
   -2.4533   -0.3566   -0.9391 H   0  0  0  0  0  0  0  0  0 40  0  0
   -0.4608   -0.9715   -0.3095 C   0  0  0  0  0  0  0  0  0 37  0  0
   -0.2854   -1.5762   -1.1973 H   0  0  0  0  0  0  0  0  0 38  0  0
   -0.0266   -1.4917    0.5414 H   0  0  0  0  0  0  0  0  0 39  0  0
    1.4633   -0.4144   -3.0133 C   0  0  0  0  0  0  0  0  0 44  0  0
    1.7346   -0.8352   -2.0499 H   0  0  0  0  0  0  0  0  0 45  0  0
    1.1607   -1.2438   -3.6721 H   0  0  0  0  0  0  0  0  0 46  0  0
    4.7517    3.1183    0.6093 H   0  0  0  0  0  0  0  0  0 53  0  0
    4.1922    1.4384    0.6348 H   0  0  0  0  0  0  0  0  0 54  0  0
    5.2707    1.9924   -0.6440 H   0  0  0  0  0  0  0  0  0 55  0  0
  1  2  1  0
  2  3  1  0
  2  4  1  0
  2  5  1  0
  5  6  1  0
  6  7  2  0
  6  8  1  0
  8  9  1  6
  8 10  1  0
 10 11  1  0
 10 12  1  0
 10 13  1  0
 13 14  1  0
 13 15  1  0
 13 16  1  0
 16 17  1  0
 16 18  1  0
 16 19  1  0
 19 20  1  0
 20 21  2  0
 20 22  1  0
 22 23  1  6
 22 24  1  0
 24 25  1  0
 24 26  1  0
 24 27  1  0
 27 28  1  0
 27 29  1  0
 27 30  1  0
 30 31  1  0
 31 32  4  0
 32 33  4  0
 33 34  4  0
 34 35  1  0
 35 36  4  0
 36 37  1  0
 36 38  4  0
 38 39  1  0
 38 40  4  0
 40 41  1  0
 40 42  4  0
 42 43  1  0
 34 44  4  0
 30 45  1  0
 45 46  1  0
 45 47  1  0
 45 48  1  0
 48 49  1  0
 48 50  1  0
 19 51  1  0
 51 52  1  0
 51 53  1  0
  1 54  1  0
  1 55  1  0
  1 56  1  0
 51  8  1  0
 48 22  1  0
 44 31  4  0
 42 35  4  0
M  END
>  <sample_id>  (374)
train::CCOC(=O)C1CCCN(C(=O)C2CCN(c3nnc(-n4cccc4)s3)CC2)C1__gen0001

>  <partition>  (374)
BAT_EXTERNAL_CONFIRM

>  <method>  (374)
BA_seed193

>  <candidate>  (374)
primary

$$$$
train::CCOC(=O)C1CCCN(C(=O)C2CCN(c3nnc(-n4cccc4)s3)CC2)C1__gen0002
     RDKit          3D

 56 59  0  0  0  0  0  0  0  0999 V2000
   -2.1935   -5.9910   -3.3868 C   0  0  0  0  0  0  0  0  0  0  0  0
   -2.1495   -4.5643   -2.9428 C   0  0  0  0  0  0  0  0  0  1  0  0
   -2.0542   -4.4993   -1.8354 H   0  0  0  0  0  0  0  0  0  2  0  0
   -3.0464   -4.0008   -3.2153 H   0  0  0  0  0  0  0  0  0  3  0  0
   -1.0015   -3.9192   -3.5131 O   0  0  0  0  0  0  0  0  0  4  0  0
   -0.7626   -2.6544   -3.1407 C   0  0  0  0  0  0  0  0  0  5  0  0
   -1.4864   -2.0521   -2.4108 O   0  0  0  0  0  0  0  0  0  6  0  0
    0.5178   -2.1404   -3.7629 C   0  0  2  0  0  0  0  0  0  7  0  0
    0.2795   -1.7558   -4.7530 H   0  0  0  0  0  0  0  0  0  8  0  0
    1.5992   -3.2160   -3.8680 C   0  0  0  0  0  0  0  0  0  9  0  0
    2.4579   -2.8186   -4.4075 H   0  0  0  0  0  0  0  0  0 51  0  0
    1.2220   -4.0781   -4.4341 H   0  0  0  0  0  0  0  0  0 52  0  0
    2.0179   -3.6691   -2.4692 C   0  0  0  0  0  0  0  0  0 10  0  0
    1.1762   -4.1402   -1.9600 H   0  0  0  0  0  0  0  0  0 49  0  0
    2.8364   -4.3862   -2.5335 H   0  0  0  0  0  0  0  0  0 50  0  0
    2.4690   -2.4664   -1.6415 C   0  0  0  0  0  0  0  0  0 11  0  0
    2.6905   -2.7583   -0.6168 H   0  0  0  0  0  0  0  0  0 47  0  0
    3.3575   -2.0100   -2.1062 H   0  0  0  0  0  0  0  0  0 48  0  0
    1.4289   -1.4532   -1.6087 N   0  0  0  0  0  0  0  0  0 12  0  0
    0.7597   -1.2440   -0.4440 C   0  0  0  0  0  0  0  0  0 13  0  0
    1.0054   -1.9346    0.5426 O   0  0  0  0  0  0  0  0  0 14  0  0
   -0.1990   -0.0482   -0.3962 C   0  0  1  0  0  0  0  0  0 15  0  0
   -0.7609   -0.0533   -1.3131 H   0  0  0  0  0  0  0  0  0 16  0  0
   -1.1858   -0.1684    0.7885 C   0  0  0  0  0  0  0  0  0 17  0  0
   -1.6998   -1.1217    0.7491 H   0  0  0  0  0  0  0  0  0 18  0  0
   -1.9407    0.6232    0.6620 H   0  0  0  0  0  0  0  0  0 43  0  0
   -0.5131    0.0015    2.1452 C   0  0  0  0  0  0  0  0  0 19  0  0
   -1.2516    0.0268    2.9505 H   0  0  0  0  0  0  0  0  0 41  0  0
    0.1674   -0.8471    2.2950 H   0  0  0  0  0  0  0  0  0 42  0  0
    0.2908    1.2019    2.1923 N   0  0  0  0  0  0  0  0  0 20  0  0
   -0.2078    2.3290    2.6712 C   0  0  0  0  0  0  0  0  0 21  0  0
   -1.4552    2.7304    2.6761 N   0  0  0  0  0  0  0  0  0 22  0  0
   -1.6557    3.8968    3.2875 N   0  0  0  0  0  0  0  0  0 23  0  0
   -0.5764    4.4512    3.7367 C   0  0  0  0  0  0  0  0  0 24  0  0
   -0.5431    5.6266    4.4379 N   0  0  0  0  0  0  0  0  0 25  0  0
   -1.6178    6.4710    4.5729 C   0  0  0  0  0  0  0  0  0 26  0  0
   -2.5660    6.2533    4.1197 H   0  0  0  0  0  0  0  0  0 33  0  0
   -1.2097    7.5432    5.3093 C   0  0  0  0  0  0  0  0  0 27  0  0
   -1.8129    8.3860    5.6048 H   0  0  0  0  0  0  0  0  0 32  0  0
    0.1490    7.3334    5.6488 C   0  0  0  0  0  0  0  0  0 28  0  0
    0.7638    7.9892    6.2364 H   0  0  0  0  0  0  0  0  0 31  0  0
    0.5195    6.1608    5.0787 C   0  0  0  0  0  0  0  0  0 29  0  0
    1.4649    5.6514    5.1204 H   0  0  0  0  0  0  0  0  0 30  0  0
    0.8822    3.4820    3.4602 S   0  0  0  0  0  0  0  0  0 34  0  0
    1.2912    1.3003    1.1682 C   0  0  0  0  0  0  0  0  0 35  0  0
    1.9554    0.4194    1.2769 H   0  0  0  0  0  0  0  0  0 36  0  0
    1.8733    2.2138    1.3007 H   0  0  0  0  0  0  0  0  0 40  0  0
    0.6108    1.2470   -0.2243 C   0  0  0  0  0  0  0  0  0 37  0  0
    1.3719    1.3184   -1.0088 H   0  0  0  0  0  0  0  0  0 38  0  0
   -0.0490    2.1022   -0.3104 H   0  0  0  0  0  0  0  0  0 39  0  0
    1.0677   -0.9792   -2.9242 C   0  0  0  0  0  0  0  0  0 44  0  0
    1.9744   -0.5771   -3.4034 H   0  0  0  0  0  0  0  0  0 45  0  0
    0.3312   -0.1773   -2.8649 H   0  0  0  0  0  0  0  0  0 46  0  0
   -1.2825   -6.5082   -3.1114 H   0  0  0  0  0  0  0  0  0 53  0  0
   -2.2699   -6.0334   -4.4741 H   0  0  0  0  0  0  0  0  0 54  0  0
   -3.0407   -6.4929   -2.9503 H   0  0  0  0  0  0  0  0  0 55  0  0
  1  2  1  0
  2  3  1  0
  2  4  1  0
  2  5  1  0
  5  6  1  0
  6  7  2  0
  6  8  1  0
  8  9  1  6
  8 10  1  0
 10 11  1  0
 10 12  1  0
 10 13  1  0
 13 14  1  0
 13 15  1  0
 13 16  1  0
 16 17  1  0
 16 18  1  0
 16 19  1  0
 19 20  1  0
 20 21  2  0
 20 22  1  0
 22 23  1  6
 22 24  1  0
 24 25  1  0
 24 26  1  0
 24 27  1  0
 27 28  1  0
 27 29  1  0
 27 30  1  0
 30 31  1  0
 31 32  4  0
 32 33  4  0
 33 34  4  0
 34 35  1  0
 35 36  4  0
 36 37  1  0
 36 38  4  0
 38 39  1  0
 38 40  4  0
 40 41  1  0
 40 42  4  0
 42 43  1  0
 34 44  4  0
 30 45  1  0
 45 46  1  0
 45 47  1  0
 45 48  1  0
 48 49  1  0
 48 50  1  0
 19 51  1  0
 51 52  1  0
 51 53  1  0
  1 54  1  0
  1 55  1  0
  1 56  1  0
 51  8  1  0
 48 22  1  0
 44 31  4  0
 42 35  4  0
M  END
>  <sample_id>  (375)
train::CCOC(=O)C1CCCN(C(=O)C2CCN(c3nnc(-n4cccc4)s3)CC2)C1__gen0002

>  <partition>  (375)
BAT_EXTERNAL_CONFIRM

>  <method>  (375)
BA_seed193

>  <candidate>  (375)
primary

$$$$
train::COc1cc(C(=O)NCC(c2cccnc2)N2CCN(c3ccc(F)cc3)CC2)cc(OC)c1OC__gen0000
     RDKit          3D

 67 70  0  0  0  0  0  0  0  0999 V2000
    2.1086    4.9925    2.0302 C   0  0  0  0  0  0  0  0  0  0  0  0
    1.3961    5.0994    1.1948 H   0  0  0  0  0  0  0  0  0  1  0  0
    2.7790    5.8482    2.0100 H   0  0  0  0  0  0  0  0  0  2  0  0
    1.5751    4.9379    2.9649 H   0  0  0  0  0  0  0  0  0  3  0  0
    2.9199    3.8499    1.8203 O   0  0  0  0  0  0  0  0  0  4  0  0
    2.3545    2.6386    1.7810 C   0  0  0  0  0  0  0  0  0  5  0  0
    0.9775    2.4145    1.8927 C   0  0  0  0  0  0  0  0  0  6  0  0
    0.2893    3.2121    2.0423 H   0  0  0  0  0  0  0  0  0 66  0  0
    0.4828    1.1164    1.8116 C   0  0  0  0  0  0  0  0  0  7  0  0
   -0.9964    0.9694    1.9266 C   0  0  0  0  0  0  0  0  0 22  0  0
   -1.7235    1.8564    2.3457 O   0  0  0  0  0  0  0  0  0 23  0  0
   -1.4888   -0.2383    1.5637 N   0  0  0  0  0  0  0  0  0 24  0  0
   -0.9059   -0.8634    1.0148 H   0  0  0  0  0  0  0  0  0 25  0  0
   -2.9128   -0.5194    1.5656 C   0  0  0  0  0  0  0  0  0 26  0  0
   -3.1523   -1.1788    2.4006 H   0  0  0  0  0  0  0  0  0 27  0  0
   -3.4187    0.4511    1.7202 H   0  0  0  0  0  0  0  0  0 28  0  0
   -3.3629   -1.1553    0.2559 C   0  0  1  0  0  0  0  0  0 29  0  0
   -2.6198   -0.5923   -0.8592 N   0  0  0  0  0  0  0  0  0 30  0  0
   -2.8336    0.8175   -1.1065 C   0  0  0  0  0  0  0  0  0 31  0  0
   -3.9091    1.0901   -1.1586 H   0  0  0  0  0  0  0  0  0 32  0  0
   -2.3806    1.3865   -0.2767 H   0  0  0  0  0  0  0  0  0 54  0  0
   -2.1255    1.2084   -2.4140 C   0  0  0  0  0  0  0  0  0 33  0  0
   -2.8092    1.0294   -3.2790 H   0  0  0  0  0  0  0  0  0 52  0  0
   -1.8925    2.2469   -2.3985 H   0  0  0  0  0  0  0  0  0 53  0  0
   -0.9686    0.3903   -2.6578 N   0  0  0  0  0  0  0  0  0 34  0  0
    0.2939    0.7816   -2.2394 C   0  0  0  0  0  0  0  0  0 35  0  0
    0.5076    2.0568   -1.6759 C   0  0  0  0  0  0  0  0  0 36  0  0
   -0.3153    2.7033   -1.4715 H   0  0  0  0  0  0  0  0  0 45  0  0
    1.7834    2.4928   -1.3787 C   0  0  0  0  0  0  0  0  0 37  0  0
    1.9519    3.4750   -0.9615 H   0  0  0  0  0  0  0  0  0 44  0  0
    2.8748    1.6569   -1.6295 C   0  0  0  0  0  0  0  0  0 38  0  0
    4.1137    2.0866   -1.3730 F   0  0  0  0  0  0  0  0  0 43  0  0
    2.6723    0.3927   -2.1466 C   0  0  0  0  0  0  0  0  0 39  0  0
    3.5307   -0.2374   -2.3398 H   0  0  0  0  0  0  0  0  0 42  0  0
    1.4101   -0.0238   -2.4568 C   0  0  0  0  0  0  0  0  0 40  0  0
    1.2797   -0.9939   -2.9034 H   0  0  0  0  0  0  0  0  0 41  0  0
   -1.3099   -0.9950   -2.8294 C   0  0  0  0  0  0  0  0  0 46  0  0
   -0.5338   -1.6425   -2.4499 H   0  0  0  0  0  0  0  0  0 50  0  0
   -1.4338   -1.2350   -3.9098 H   0  0  0  0  0  0  0  0  0 51  0  0
   -2.6247   -1.3230   -2.0997 C   0  0  0  0  0  0  0  0  0 47  0  0
   -2.6864   -2.4040   -1.9195 H   0  0  0  0  0  0  0  0  0 48  0  0
   -3.5005   -1.0363   -2.7169 H   0  0  0  0  0  0  0  0  0 49  0  0
   -3.2418   -2.6520    0.2794 C   0  0  0  0  0  0  0  0  0 55  0  0
   -3.9612   -3.4454   -0.6573 C   0  0  0  0  0  0  0  0  0 56  0  0
   -4.6181   -2.9509   -1.3661 H   0  0  0  0  0  0  0  0  0 64  0  0
   -3.8472   -4.8003   -0.6221 C   0  0  0  0  0  0  0  0  0 57  0  0
   -4.3960   -5.4146   -1.3195 H   0  0  0  0  0  0  0  0  0 63  0  0
   -2.9863   -5.3844    0.3070 C   0  0  0  0  0  0  0  0  0 58  0  0
   -2.8548   -6.4490    0.3664 H   0  0  0  0  0  0  0  0  0 62  0  0
   -2.2898   -4.6709    1.1692 N   0  0  0  0  0  0  0  0  0 59  0  0
   -2.4048   -3.3596    1.1364 C   0  0  0  0  0  0  0  0  0 60  0  0
   -1.7935   -2.8535    1.8804 H   0  0  0  0  0  0  0  0  0 61  0  0
   -4.4559   -0.9135    0.1192 H   0  0  0  0  0  0  0  0  0 65  0  0
    1.3416    0.0559    1.6055 C   0  0  0  0  0  0  0  0  0  8  0  0
    0.9672   -0.9478    1.5942 H   0  0  0  0  0  0  0  0  0 21  0  0
    2.7060    0.2639    1.4746 C   0  0  0  0  0  0  0  0  0  9  0  0
    3.5759   -0.7688    1.1895 O   0  0  0  0  0  0  0  0  0 16  0  0
    3.0649   -2.0665    1.0120 C   0  0  0  0  0  0  0  0  0 17  0  0
    2.3357   -2.0890    0.1912 H   0  0  0  0  0  0  0  0  0 18  0  0
    3.9107   -2.6893    0.7375 H   0  0  0  0  0  0  0  0  0 19  0  0
    2.6042   -2.4431    1.9246 H   0  0  0  0  0  0  0  0  0 20  0  0
    3.2397    1.5660    1.5657 C   0  0  0  0  0  0  0  0  0 10  0  0
    4.5217    1.9290    1.4511 O   0  0  0  0  0  0  0  0  0 11  0  0
    5.5711    0.9987    1.5540 C   0  0  0  0  0  0  0  0  0 12  0  0
    5.6232    0.3446    0.6755 H   0  0  0  0  0  0  0  0  0 13  0  0
    5.4970    0.3823    2.4488 H   0  0  0  0  0  0  0  0  0 14  0  0
    6.4938    1.5950    1.5932 H   0  0  0  0  0  0  0  0  0 15  0  0
  1  2  1  0
  1  3  1  0
  1  4  1  0
  1  5  1  0
  5  6  1  0
  6  7  4  0
  7  8  1  0
  7  9  4  0
  9 10  1  0
 10 11  2  0
 10 12  1  0
 12 13  1  0
 12 14  1  0
 14 15  1  0
 14 16  1  0
 14 17  1  0
 17 18  1  0
 18 19  1  0
 19 20  1  0
 19 21  1  0
 19 22  1  0
 22 23  1  0
 22 24  1  0
 22 25  1  0
 25 26  1  0
 26 27  4  0
 27 28  1  0
 27 29  4  0
 29 30  1  0
 29 31  4  0
 31 32  1  0
 31 33  4  0
 33 34  1  0
 33 35  4  0
 35 36  1  0
 25 37  1  0
 37 38  1  0
 37 39  1  0
 37 40  1  0
 40 41  1  0
 40 42  1  0
 17 43  1  0
 43 44  4  0
 44 45  1  0
 44 46  4  0
 46 47  1  0
 46 48  4  0
 48 49  1  0
 48 50  4  0
 50 51  4  0
 51 52  1  0
 17 53  1  6
  9 54  4  0
 54 55  1  0
 54 56  4  0
 56 57  1  0
 57 58  1  0
 58 59  1  0
 58 60  1  0
 58 61  1  0
 56 62  4  0
 62 63  1  0
 63 64  1  0
 64 65  1  0
 64 66  1  0
 64 67  1  0
 62  6  4  0
 40 18  1  0
 51 43  4  0
 35 26  4  0
M  END
>  <sample_id>  (376)
train::COc1cc(C(=O)NCC(c2cccnc2)N2CCN(c3ccc(F)cc3)CC2)cc(OC)c1OC__gen0000

>  <partition>  (376)
BAT_EXTERNAL_CONFIRM

>  <method>  (376)
BA_seed193

>  <candidate>  (376)
primary

$$$$
train::COc1cc(C(=O)NCC(c2cccnc2)N2CCN(c3ccc(F)cc3)CC2)cc(OC)c1OC__gen0001
     RDKit          3D

 67 70  0  0  0  0  0  0  0  0999 V2000
    4.0902    4.0819   -3.1864 C   0  0  0  0  0  0  0  0  0  0  0  0
    4.4735    3.0862   -2.9244 H   0  0  0  0  0  0  0  0  0  1  0  0
    4.9252    4.7428   -3.4266 H   0  0  0  0  0  0  0  0  0  2  0  0
    3.4150    3.9883   -4.0473 H   0  0  0  0  0  0  0  0  0  3  0  0
    3.4403    4.6798   -2.0815 O   0  0  0  0  0  0  0  0  0  4  0  0
    2.3539    4.0333   -1.5412 C   0  0  0  0  0  0  0  0  0  5  0  0
    1.8653    2.8289   -2.0121 C   0  0  0  0  0  0  0  0  0  6  0  0
    2.3246    2.3482   -2.8760 H   0  0  0  0  0  0  0  0  0 66  0  0
    0.7629    2.2257   -1.4556 C   0  0  0  0  0  0  0  0  0  7  0  0
    0.3169    0.9187   -2.0455 C   0  0  0  0  0  0  0  0  0 22  0  0
    1.0620    0.1725   -2.6348 O   0  0  0  0  0  0  0  0  0 23  0  0
   -0.9991    0.6780   -1.9289 N   0  0  0  0  0  0  0  0  0 24  0  0
   -1.6103    1.3140   -1.4197 H   0  0  0  0  0  0  0  0  0 25  0  0
   -1.5838   -0.5914   -2.2937 C   0  0  0  0  0  0  0  0  0 26  0  0
   -2.4638   -0.4237   -2.9271 H   0  0  0  0  0  0  0  0  0 27  0  0
   -0.8362   -1.1383   -2.8651 H   0  0  0  0  0  0  0  0  0 28  0  0
   -2.0244   -1.4012   -1.0585 C   0  0  1  0  0  0  0  0  0 29  0  0
   -0.9791   -1.5758   -0.0311 N   0  0  0  0  0  0  0  0  0 30  0  0
   -1.4570   -2.3977    1.0805 C   0  0  0  0  0  0  0  0  0 31  0  0
   -2.4052   -1.9746    1.4481 H   0  0  0  0  0  0  0  0  0 32  0  0
   -1.6260   -3.4280    0.7653 H   0  0  0  0  0  0  0  0  0 54  0  0
   -0.4172   -2.3568    2.2002 C   0  0  0  0  0  0  0  0  0 33  0  0
   -0.7869   -2.9220    3.0555 H   0  0  0  0  0  0  0  0  0 52  0  0
   -0.2367   -1.3202    2.5031 H   0  0  0  0  0  0  0  0  0 53  0  0
    0.8510   -2.8783    1.7306 N   0  0  0  0  0  0  0  0  0 34  0  0
    1.0816   -4.2465    1.8414 C   0  0  0  0  0  0  0  0  0 35  0  0
    1.6482   -5.0105    0.7967 C   0  0  0  0  0  0  0  0  0 36  0  0
    1.9137   -4.5516   -0.1353 H   0  0  0  0  0  0  0  0  0 45  0  0
    1.9420   -6.3569    0.9583 C   0  0  0  0  0  0  0  0  0 37  0  0
    2.3704   -6.9396    0.1624 H   0  0  0  0  0  0  0  0  0 44  0  0
    1.6376   -6.9804    2.1685 C   0  0  0  0  0  0  0  0  0 38  0  0
    1.8962   -8.3013    2.3274 F   0  0  0  0  0  0  0  0  0 43  0  0
    1.0827   -6.2651    3.2042 C   0  0  0  0  0  0  0  0  0 39  0  0
    0.8643   -6.7522    4.1465 H   0  0  0  0  0  0  0  0  0 42  0  0
    0.8309   -4.9137    3.0395 C   0  0  0  0  0  0  0  0  0 40  0  0
    0.4106   -4.3707    3.8737 H   0  0  0  0  0  0  0  0  0 41  0  0
    1.3075   -2.1373    0.5779 C   0  0  0  0  0  0  0  0  0 46  0  0
    2.2384   -2.5640    0.2137 H   0  0  0  0  0  0  0  0  0 50  0  0
    1.4913   -1.1061    0.9186 H   0  0  0  0  0  0  0  0  0 51  0  0
    0.2548   -2.1178   -0.5457 C   0  0  0  0  0  0  0  0  0 47  0  0
    0.0893   -3.1602   -0.9065 H   0  0  0  0  0  0  0  0  0 48  0  0
    0.6443   -1.5334   -1.3777 H   0  0  0  0  0  0  0  0  0 49  0  0
   -3.1977   -0.6722   -0.4506 C   0  0  0  0  0  0  0  0  0 55  0  0
   -4.4889   -0.8885   -0.9022 C   0  0  0  0  0  0  0  0  0 56  0  0
   -4.6739   -1.6463   -1.6553 H   0  0  0  0  0  0  0  0  0 64  0  0
   -5.5298   -0.1456   -0.3899 C   0  0  0  0  0  0  0  0  0 57  0  0
   -6.5458   -0.2996   -0.7241 H   0  0  0  0  0  0  0  0  0 63  0  0
   -5.2405    0.8221    0.5510 C   0  0  0  0  0  0  0  0  0 58  0  0
   -6.0040    1.4533    0.9954 H   0  0  0  0  0  0  0  0  0 62  0  0
   -3.9959    1.0605    0.9985 N   0  0  0  0  0  0  0  0  0 59  0  0
   -3.0195    0.3263    0.5106 C   0  0  0  0  0  0  0  0  0 60  0  0
   -2.0171    0.5122    0.9122 H   0  0  0  0  0  0  0  0  0 61  0  0
   -2.3578   -2.4143   -1.4100 H   0  0  0  0  0  0  0  0  0 65  0  0
    0.1467    2.7899   -0.3446 C   0  0  0  0  0  0  0  0  0  8  0  0
   -0.6824    2.2814    0.1278 H   0  0  0  0  0  0  0  0  0 21  0  0
    0.6364    3.9797    0.1737 C   0  0  0  0  0  0  0  0  0  9  0  0
    0.1211    4.6076    1.2398 O   0  0  0  0  0  0  0  0  0 16  0  0
   -0.9707    4.0057    1.9397 C   0  0  0  0  0  0  0  0  0 17  0  0
   -1.8481    3.9376    1.2835 H   0  0  0  0  0  0  0  0  0 18  0  0
   -0.7081    2.9999    2.2934 H   0  0  0  0  0  0  0  0  0 19  0  0
   -1.1898    4.6553    2.7740 H   0  0  0  0  0  0  0  0  0 20  0  0
    1.7397    4.6298   -0.4138 C   0  0  0  0  0  0  0  0  0 10  0  0
    2.0684    5.7831    0.2055 O   0  0  0  0  0  0  0  0  0 11  0  0
    3.1900    6.5498   -0.1861 C   0  0  0  0  0  0  0  0  0 12  0  0
    3.2072    7.3997    0.5096 H   0  0  0  0  0  0  0  0  0 13  0  0
    4.1166    5.9688   -0.1082 H   0  0  0  0  0  0  0  0  0 14  0  0
    3.0853    6.9209   -1.2209 H   0  0  0  0  0  0  0  0  0 15  0  0
  1  2  1  0
  1  3  1  0
  1  4  1  0
  1  5  1  0
  5  6  1  0
  6  7  4  0
  7  8  1  0
  7  9  4  0
  9 10  1  0
 10 11  2  0
 10 12  1  0
 12 13  1  0
 12 14  1  0
 14 15  1  0
 14 16  1  0
 14 17  1  0
 17 18  1  0
 18 19  1  0
 19 20  1  0
 19 21  1  0
 19 22  1  0
 22 23  1  0
 22 24  1  0
 22 25  1  0
 25 26  1  0
 26 27  4  0
 27 28  1  0
 27 29  4  0
 29 30  1  0
 29 31  4  0
 31 32  1  0
 31 33  4  0
 33 34  1  0
 33 35  4  0
 35 36  1  0
 25 37  1  0
 37 38  1  0
 37 39  1  0
 37 40  1  0
 40 41  1  0
 40 42  1  0
 17 43  1  0
 43 44  4  0
 44 45  1  0
 44 46  4  0
 46 47  1  0
 46 48  4  0
 48 49  1  0
 48 50  4  0
 50 51  4  0
 51 52  1  0
 17 53  1  6
  9 54  4  0
 54 55  1  0
 54 56  4  0
 56 57  1  0
 57 58  1  0
 58 59  1  0
 58 60  1  0
 58 61  1  0
 56 62  4  0
 62 63  1  0
 63 64  1  0
 64 65  1  0
 64 66  1  0
 64 67  1  0
 62  6  4  0
 40 18  1  0
 51 43  4  0
 35 26  4  0
M  END
>  <sample_id>  (377)
train::COc1cc(C(=O)NCC(c2cccnc2)N2CCN(c3ccc(F)cc3)CC2)cc(OC)c1OC__gen0001

>  <partition>  (377)
BAT_EXTERNAL_CONFIRM

>  <method>  (377)
BA_seed193

>  <candidate>  (377)
primary

$$$$
train::COc1cc(C(=O)NCC(c2cccnc2)N2CCN(c3ccc(F)cc3)CC2)cc(OC)c1OC__gen0002
     RDKit          3D

 67 70  0  0  0  0  0  0  0  0999 V2000
   -4.3319    3.1702   -2.0021 C   0  0  0  0  0  0  0  0  0  0  0  0
   -4.9459    2.2635   -2.1017 H   0  0  0  0  0  0  0  0  0  1  0  0
   -3.5256    3.1589   -2.7273 H   0  0  0  0  0  0  0  0  0  2  0  0
   -4.9635    4.0394   -2.1639 H   0  0  0  0  0  0  0  0  0  3  0  0
   -3.8416    3.3131   -0.6896 O   0  0  0  0  0  0  0  0  0  4  0  0
   -3.0402    2.3178   -0.1854 C   0  0  0  0  0  0  0  0  0  5  0  0
   -2.6516    1.2194   -0.9553 C   0  0  0  0  0  0  0  0  0  6  0  0
   -3.0048    1.0722   -1.9508 H   0  0  0  0  0  0  0  0  0 66  0  0
   -1.7988    0.2584   -0.4131 C   0  0  0  0  0  0  0  0  0  7  0  0
   -1.4324   -0.8891   -1.2994 C   0  0  0  0  0  0  0  0  0 22  0  0
   -2.1688   -1.3164   -2.1613 O   0  0  0  0  0  0  0  0  0 23  0  0
   -0.2268   -1.4078   -1.0683 N   0  0  0  0  0  0  0  0  0 24  0  0
    0.4552   -0.9765   -0.4466 H   0  0  0  0  0  0  0  0  0 25  0  0
    0.3135   -2.4803   -1.8615 C   0  0  0  0  0  0  0  0  0 26  0  0
   -0.4684   -3.2415   -1.9588 H   0  0  0  0  0  0  0  0  0 27  0  0
    0.5628   -2.1267   -2.8606 H   0  0  0  0  0  0  0  0  0 28  0  0
    1.5955   -3.0450   -1.2220 C   0  0  1  0  0  0  0  0  0 29  0  0
    2.3935   -1.8885   -0.7619 N   0  0  0  0  0  0  0  0  0 30  0  0
    3.3313   -1.4151   -1.7385 C   0  0  0  0  0  0  0  0  0 31  0  0
    2.7892   -1.2626   -2.6829 H   0  0  0  0  0  0  0  0  0 32  0  0
    4.1102   -2.1680   -1.9318 H   0  0  0  0  0  0  0  0  0 54  0  0
    3.9688   -0.1143   -1.2186 C   0  0  0  0  0  0  0  0  0 33  0  0
    4.1453    0.5707   -2.0486 H   0  0  0  0  0  0  0  0  0 52  0  0
    4.9322   -0.3561   -0.7525 H   0  0  0  0  0  0  0  0  0 53  0  0
    3.1580    0.4888   -0.1901 N   0  0  0  0  0  0  0  0  0 34  0  0
    2.1077    1.3649   -0.5437 C   0  0  0  0  0  0  0  0  0 35  0  0
    1.6402    1.4588   -1.8525 C   0  0  0  0  0  0  0  0  0 36  0  0
    2.0505    0.8758   -2.6653 H   0  0  0  0  0  0  0  0  0 45  0  0
    0.6449    2.3744   -2.1961 C   0  0  0  0  0  0  0  0  0 37  0  0
    0.2801    2.4649   -3.2075 H   0  0  0  0  0  0  0  0  0 44  0  0
    0.1097    3.1796   -1.2059 C   0  0  0  0  0  0  0  0  0 38  0  0
   -0.8531    4.0528   -1.5467 F   0  0  0  0  0  0  0  0  0 43  0  0
    0.5516    3.0975    0.1083 C   0  0  0  0  0  0  0  0  0 39  0  0
    0.1312    3.7327    0.8612 H   0  0  0  0  0  0  0  0  0 42  0  0
    1.5360    2.1787    0.4310 C   0  0  0  0  0  0  0  0  0 40  0  0
    1.9147    2.1490    1.4390 H   0  0  0  0  0  0  0  0  0 41  0  0
    3.0114   -0.3437    0.9781 C   0  0  0  0  0  0  0  0  0 46  0  0
    3.9051   -0.2154    1.6172 H   0  0  0  0  0  0  0  0  0 50  0  0
    2.1402   -0.0128    1.5073 H   0  0  0  0  0  0  0  0  0 51  0  0
    2.9330   -1.8379    0.5739 C   0  0  0  0  0  0  0  0  0 47  0  0
    2.2696   -2.3454    1.2696 H   0  0  0  0  0  0  0  0  0 48  0  0
    3.9179   -2.3049    0.5980 H   0  0  0  0  0  0  0  0  0 49  0  0
    1.3168   -4.0758   -0.1478 C   0  0  0  0  0  0  0  0  0 55  0  0
    0.0507   -4.3824    0.3248 C   0  0  0  0  0  0  0  0  0 56  0  0
   -0.8260   -3.8587   -0.0293 H   0  0  0  0  0  0  0  0  0 64  0  0
   -0.0732   -5.3675    1.2932 C   0  0  0  0  0  0  0  0  0 57  0  0
   -1.0582   -5.6139    1.6845 H   0  0  0  0  0  0  0  0  0 63  0  0
    1.0724   -5.9524    1.7915 C   0  0  0  0  0  0  0  0  0 58  0  0
    1.0131   -6.7214    2.5482 H   0  0  0  0  0  0  0  0  0 62  0  0
    2.2946   -5.6828    1.3209 N   0  0  0  0  0  0  0  0  0 59  0  0
    2.3995   -4.7663    0.4049 C   0  0  0  0  0  0  0  0  0 60  0  0
    3.4175   -4.5660    0.0642 H   0  0  0  0  0  0  0  0  0 61  0  0
    2.1863   -3.5446   -2.0036 H   0  0  0  0  0  0  0  0  0 65  0  0
   -1.3563    0.3900    0.8796 C   0  0  0  0  0  0  0  0  0  8  0  0
   -0.7190   -0.3529    1.3400 H   0  0  0  0  0  0  0  0  0 21  0  0
   -1.7621    1.4583    1.6796 C   0  0  0  0  0  0  0  0  0  9  0  0
   -1.2347    1.4240    2.9375 O   0  0  0  0  0  0  0  0  0 16  0  0
   -1.6715    2.2846    3.9631 C   0  0  0  0  0  0  0  0  0 17  0  0
   -1.3877    3.3238    3.7566 H   0  0  0  0  0  0  0  0  0 18  0  0
   -2.7430    2.2121    4.1086 H   0  0  0  0  0  0  0  0  0 19  0  0
   -1.1421    1.9346    4.8525 H   0  0  0  0  0  0  0  0  0 20  0  0
   -2.6051    2.4508    1.1549 C   0  0  0  0  0  0  0  0  0 10  0  0
   -2.9336    3.5035    1.9445 O   0  0  0  0  0  0  0  0  0 11  0  0
   -4.2316    4.0968    1.8389 C   0  0  0  0  0  0  0  0  0 12  0  0
   -4.3786    4.6158    2.7840 H   0  0  0  0  0  0  0  0  0 13  0  0
   -4.2762    4.8034    1.0173 H   0  0  0  0  0  0  0  0  0 14  0  0
   -4.9978    3.3341    1.7180 H   0  0  0  0  0  0  0  0  0 15  0  0
  1  2  1  0
  1  3  1  0
  1  4  1  0
  1  5  1  0
  5  6  1  0
  6  7  4  0
  7  8  1  0
  7  9  4  0
  9 10  1  0
 10 11  2  0
 10 12  1  0
 12 13  1  0
 12 14  1  0
 14 15  1  0
 14 16  1  0
 14 17  1  0
 17 18  1  0
 18 19  1  0
 19 20  1  0
 19 21  1  0
 19 22  1  0
 22 23  1  0
 22 24  1  0
 22 25  1  0
 25 26  1  0
 26 27  4  0
 27 28  1  0
 27 29  4  0
 29 30  1  0
 29 31  4  0
 31 32  1  0
 31 33  4  0
 33 34  1  0
 33 35  4  0
 35 36  1  0
 25 37  1  0
 37 38  1  0
 37 39  1  0
 37 40  1  0
 40 41  1  0
 40 42  1  0
 17 43  1  0
 43 44  4  0
 44 45  1  0
 44 46  4  0
 46 47  1  0
 46 48  4  0
 48 49  1  0
 48 50  4  0
 50 51  4  0
 51 52  1  0
 17 53  1  6
  9 54  4  0
 54 55  1  0
 54 56  4  0
 56 57  1  0
 57 58  1  0
 58 59  1  0
 58 60  1  0
 58 61  1  0
 56 62  4  0
 62 63  1  0
 63 64  1  0
 64 65  1  0
 64 66  1  0
 64 67  1  0
 62  6  4  0
 40 18  1  0
 51 43  4  0
 35 26  4  0
M  END
>  <sample_id>  (378)
train::COc1cc(C(=O)NCC(c2cccnc2)N2CCN(c3ccc(F)cc3)CC2)cc(OC)c1OC__gen0002

>  <partition>  (378)
BAT_EXTERNAL_CONFIRM

>  <method>  (378)
BA_seed193

>  <candidate>  (378)
primary

$$$$
train::Cc1cc(C)nc(SC2CCOC2=O)n1__gen0000
     RDKit          3D

 27 28  0  0  0  0  0  0  0  0999 V2000
   -4.2137   -0.8800    0.8543 C   0  0  0  0  0  0  0  0  0  0  0  0
   -2.7818   -0.5031    0.8481 C   0  0  0  0  0  0  0  0  0  1  0  0
   -1.9659   -1.1665    0.0347 N   0  0  0  0  0  0  0  0  0  2  0  0
   -0.6976   -0.8193    0.0423 C   0  0  0  0  0  0  0  0  0  3  0  0
    0.3198   -1.6937   -1.0992 S   0  0  0  0  0  0  0  0  0 12  0  0
    1.7987   -0.6123   -1.0265 C   0  0  1  0  0  0  0  0  0 13  0  0
    1.9740   -0.3914    0.0332 H   0  0  0  0  0  0  0  0  0 23  0  0
    2.9903   -1.2323   -1.7652 C   0  0  0  0  0  0  0  0  0 14  0  0
    2.6195   -1.9089   -2.5306 H   0  0  0  0  0  0  0  0  0 15  0  0
    3.6563   -1.7643   -1.0988 H   0  0  0  0  0  0  0  0  0 16  0  0
    3.6484    0.0108   -2.3859 C   0  0  0  0  0  0  0  0  0 17  0  0
    4.0713   -0.1981   -3.3725 H   0  0  0  0  0  0  0  0  0 18  0  0
    4.4272    0.4107   -1.7318 H   0  0  0  0  0  0  0  0  0 19  0  0
    2.6180    0.9632   -2.5347 O   0  0  0  0  0  0  0  0  0 20  0  0
    1.5438    0.6976   -1.7939 C   0  0  0  0  0  0  0  0  0 21  0  0
    0.5921    1.3883   -1.7547 O   0  0  0  0  0  0  0  0  0 22  0  0
   -0.1266    0.0988    0.7976 N   0  0  0  0  0  0  0  0  0  4  0  0
   -0.9270    0.7832    1.6121 C   0  0  0  0  0  0  0  0  0  5  0  0
   -0.2665    1.8484    2.4384 C   0  0  0  0  0  0  0  0  0  8  0  0
    0.3627    2.4648    1.8017 H   0  0  0  0  0  0  0  0  0  9  0  0
    0.3538    1.3878    3.2058 H   0  0  0  0  0  0  0  0  0 10  0  0
   -1.0255    2.4707    2.9163 H   0  0  0  0  0  0  0  0  0 11  0  0
   -2.2820    0.5093    1.6651 C   0  0  0  0  0  0  0  0  0  6  0  0
   -2.9511    1.0721    2.3208 H   0  0  0  0  0  0  0  0  0  7  0  0
   -4.8282   -0.0417    0.5232 H   0  0  0  0  0  0  0  0  0 24  0  0
   -4.5393   -1.1723    1.8416 H   0  0  0  0  0  0  0  0  0 25  0  0
   -4.3706   -1.7216    0.1585 H   0  0  0  0  0  0  0  0  0 26  0  0
  1  2  1  0
  2  3  4  0
  3  4  4  0
  4  5  1  0
  5  6  1  0
  6  7  1  1
  6  8  1  0
  8  9  1  0
  8 10  1  0
  8 11  1  0
 11 12  1  0
 11 13  1  0
 11 14  1  0
 14 15  1  0
 15 16  2  0
  4 17  4  0
 17 18  4  0
 18 19  1  0
 19 20  1  0
 19 21  1  0
 19 22  1  0
 18 23  4  0
 23 24  1  0
  1 25  1  0
  1 26  1  0
  1 27  1  0
 23  2  4  0
 15  6  1  0
M  END
>  <sample_id>  (379)
train::Cc1cc(C)nc(SC2CCOC2=O)n1__gen0000

>  <partition>  (379)
BAT_EXTERNAL_CONFIRM

>  <method>  (379)
BA_seed193

>  <candidate>  (379)
primary

$$$$
train::Cc1cc(C)nc(SC2CCOC2=O)n1__gen0001
     RDKit          3D

 27 28  0  0  0  0  0  0  0  0999 V2000
    0.5116    1.8473   -2.4489 C   0  0  0  0  0  0  0  0  0  0  0  0
    0.1192    0.4808   -1.9660 C   0  0  0  0  0  0  0  0  0  1  0  0
   -0.1764    0.3444   -0.6936 N   0  0  0  0  0  0  0  0  0  2  0  0
   -0.5163   -0.8611   -0.2810 C   0  0  0  0  0  0  0  0  0  3  0  0
   -0.8779   -1.0736    1.4212 S   0  0  0  0  0  0  0  0  0 12  0  0
   -0.2631    0.5215    2.0623 C   0  0  1  0  0  0  0  0  0 13  0  0
   -0.4796    1.2653    1.2895 H   0  0  0  0  0  0  0  0  0 23  0  0
   -0.8153    0.8617    3.4467 C   0  0  0  0  0  0  0  0  0 14  0  0
   -1.6531    1.5594    3.4183 H   0  0  0  0  0  0  0  0  0 15  0  0
   -1.1427   -0.0640    3.9355 H   0  0  0  0  0  0  0  0  0 16  0  0
    0.4056    1.4619    4.1517 C   0  0  0  0  0  0  0  0  0 17  0  0
    0.4539    1.1741    5.2047 H   0  0  0  0  0  0  0  0  0 18  0  0
    0.4307    2.5481    4.0809 H   0  0  0  0  0  0  0  0  0 19  0  0
    1.5365    0.9495    3.4938 O   0  0  0  0  0  0  0  0  0 20  0  0
    1.2444    0.4496    2.2862 C   0  0  0  0  0  0  0  0  0 21  0  0
    2.0654    0.0071    1.5445 O   0  0  0  0  0  0  0  0  0 22  0  0
   -0.6364   -1.9393   -1.0037 N   0  0  0  0  0  0  0  0  0  4  0  0
   -0.3569   -1.8261   -2.2983 C   0  0  0  0  0  0  0  0  0  5  0  0
   -0.4691   -3.0587   -3.1443 C   0  0  0  0  0  0  0  0  0  8  0  0
   -1.1512   -2.8906   -3.9826 H   0  0  0  0  0  0  0  0  0  9  0  0
    0.5085   -3.3322   -3.5460 H   0  0  0  0  0  0  0  0  0 10  0  0
   -0.8461   -3.8795   -2.5275 H   0  0  0  0  0  0  0  0  0 11  0  0
    0.0315   -0.6038   -2.8436 C   0  0  0  0  0  0  0  0  0  6  0  0
    0.2675   -0.5021   -3.8966 H   0  0  0  0  0  0  0  0  0  7  0  0
    0.6578    2.5034   -1.5922 H   0  0  0  0  0  0  0  0  0 24  0  0
   -0.2705    2.2630   -3.0763 H   0  0  0  0  0  0  0  0  0 25  0  0
    1.4221    1.7938   -3.0350 H   0  0  0  0  0  0  0  0  0 26  0  0
  1  2  1  0
  2  3  4  0
  3  4  4  0
  4  5  1  0
  5  6  1  0
  6  7  1  6
  6  8  1  0
  8  9  1  0
  8 10  1  0
  8 11  1  0
 11 12  1  0
 11 13  1  0
 11 14  1  0
 14 15  1  0
 15 16  2  0
  4 17  4  0
 17 18  4  0
 18 19  1  0
 19 20  1  0
 19 21  1  0
 19 22  1  0
 18 23  4  0
 23 24  1  0
  1 25  1  0
  1 26  1  0
  1 27  1  0
 23  2  4  0
 15  6  1  0
M  END
>  <sample_id>  (380)
train::Cc1cc(C)nc(SC2CCOC2=O)n1__gen0001

>  <partition>  (380)
BAT_EXTERNAL_CONFIRM

>  <method>  (380)
BA_seed193

>  <candidate>  (380)
primary

$$$$
train::Cc1cc(C)nc(SC2CCOC2=O)n1__gen0002
     RDKit          3D

 27 28  0  0  0  0  0  0  0  0999 V2000
    1.6263   -1.0743   -3.8764 C   0  0  0  0  0  0  0  0  0  0  0  0
    1.2595   -0.4587   -2.5652 C   0  0  0  0  0  0  0  0  0  1  0  0
    0.5915   -1.2264   -1.7110 N   0  0  0  0  0  0  0  0  0  2  0  0
    0.2734   -0.6823   -0.5537 C   0  0  0  0  0  0  0  0  0  3  0  0
   -0.5941   -1.7367    0.5498 S   0  0  0  0  0  0  0  0  0 12  0  0
   -0.7590   -0.6352    1.9984 C   0  0  1  0  0  0  0  0  0 13  0  0
    0.1115    0.0303    1.9442 H   0  0  0  0  0  0  0  0  0 23  0  0
   -2.1029    0.0860    2.0583 C   0  0  0  0  0  0  0  0  0 14  0  0
   -2.5335    0.2610    1.0685 H   0  0  0  0  0  0  0  0  0 15  0  0
   -2.0082    1.0436    2.5640 H   0  0  0  0  0  0  0  0  0 16  0  0
   -2.9464   -0.8906    2.8766 C   0  0  0  0  0  0  0  0  0 17  0  0
   -3.4694   -1.5968    2.2188 H   0  0  0  0  0  0  0  0  0 18  0  0
   -3.6767   -0.3984    3.5326 H   0  0  0  0  0  0  0  0  0 19  0  0
   -2.0322   -1.5962    3.7003 O   0  0  0  0  0  0  0  0  0 20  0  0
   -0.7787   -1.5135    3.2403 C   0  0  0  0  0  0  0  0  0 21  0  0
    0.1599   -2.0452    3.7586 O   0  0  0  0  0  0  0  0  0 22  0  0
    0.5328    0.5505   -0.1578 N   0  0  0  0  0  0  0  0  0  4  0  0
    1.1947    1.3293   -1.0051 C   0  0  0  0  0  0  0  0  0  5  0  0
    1.5043    2.7151   -0.5462 C   0  0  0  0  0  0  0  0  0  8  0  0
    1.2157    3.4379   -1.3213 H   0  0  0  0  0  0  0  0  0  9  0  0
    0.9498    2.9416    0.3620 H   0  0  0  0  0  0  0  0  0 10  0  0
    2.5688    2.8152   -0.3518 H   0  0  0  0  0  0  0  0  0 11  0  0
    1.6048    0.8470   -2.2447 C   0  0  0  0  0  0  0  0  0  6  0  0
    2.1450    1.4712   -2.9348 H   0  0  0  0  0  0  0  0  0  7  0  0
    2.7083   -1.0761   -4.0031 H   0  0  0  0  0  0  0  0  0 24  0  0
    1.2591   -2.0953   -3.9117 H   0  0  0  0  0  0  0  0  0 25  0  0
    1.1957   -0.5032   -4.6897 H   0  0  0  0  0  0  0  0  0 26  0  0
  1  2  1  0
  2  3  4  0
  3  4  4  0
  4  5  1  0
  5  6  1  0
  6  7  1  1
  6  8  1  0
  8  9  1  0
  8 10  1  0
  8 11  1  0
 11 12  1  0
 11 13  1  0
 11 14  1  0
 14 15  1  0
 15 16  2  0
  4 17  4  0
 17 18  4  0
 18 19  1  0
 19 20  1  0
 19 21  1  0
 19 22  1  0
 18 23  4  0
 23 24  1  0
  1 25  1  0
  1 26  1  0
  1 27  1  0
 23  2  4  0
 15  6  1  0
M  END
>  <sample_id>  (381)
train::Cc1cc(C)nc(SC2CCOC2=O)n1__gen0002

>  <partition>  (381)
BAT_EXTERNAL_CONFIRM

>  <method>  (381)
BA_seed193

>  <candidate>  (381)
primary

$$$$
train::COc1cccc(_C=N_Nc2ncc(C(F)(F)F)cc2Cl)c1O__gen0000
     RDKit          3D

 34 35  0  0  0  0  0  0  0  0999 V2000
   -5.4325   -1.3754    1.6218 C   0  0  0  0  0  0  0  0  0  0  0  0
   -5.4039   -1.7432    2.6531 H   0  0  0  0  0  0  0  0  0  1  0  0
   -4.1666   -0.9454    1.2009 O   0  0  0  0  0  0  0  0  0  2  0  0
   -3.1366   -1.8695    1.1726 C   0  0  0  0  0  0  0  0  0  3  0  0
   -3.2541   -3.2033    1.5339 C   0  0  0  0  0  0  0  0  0  4  0  0
   -4.2187   -3.6083    1.8391 H   0  0  0  0  0  0  0  0  0 31  0  0
   -2.1510   -4.0280    1.4599 C   0  0  0  0  0  0  0  0  0  5  0  0
   -2.2474   -5.0797    1.7358 H   0  0  0  0  0  0  0  0  0 30  0  0
   -0.9339   -3.5342    1.0529 C   0  0  0  0  0  0  0  0  0  6  0  0
   -0.0692   -4.1825    1.0150 H   0  0  0  0  0  0  0  0  0 29  0  0
   -0.7796   -2.1875    0.7012 C   0  0  0  0  0  0  0  0  0  7  0  0
    0.5198   -1.7243    0.2877 C   0  0  0  0  0  0  0  0  0 11  0  0
    0.7625   -0.5181   -0.0463 N   0  0  0  0  0  0  0  0  0 12  0  0
    2.0175   -0.2083   -0.3787 N   0  0  0  0  0  0  0  0  0 13  0  0
    2.4557    1.0107   -0.7980 C   0  0  0  0  0  0  0  0  0 14  0  0
    3.7544    1.0392   -1.1151 N   0  0  0  0  0  0  0  0  0 15  0  0
    4.3099    2.1632   -1.5145 C   0  0  0  0  0  0  0  0  0 16  0  0
    5.3752    2.1312   -1.7533 H   0  0  0  0  0  0  0  0  0 26  0  0
    3.5884    3.3523   -1.6414 C   0  0  0  0  0  0  0  0  0 17  0  0
    4.2613    4.5981   -2.1455 C   0  0  1  0  0  0  0  0  0 22  0  0
    4.3544    4.6076   -3.4886 F   0  0  0  0  0  0  0  0  0 23  0  0
    3.6071    5.7131   -1.8040 F   0  0  0  0  0  0  0  0  0 24  0  0
    5.5251    4.7079   -1.6832 F   0  0  0  0  0  0  0  0  0 25  0  0
    2.2372    3.3475   -1.3112 C   0  0  0  0  0  0  0  0  0 18  0  0
    1.6474    4.2437   -1.3969 H   0  0  0  0  0  0  0  0  0 21  0  0
    1.6508    2.1676   -0.8880 C   0  0  0  0  0  0  0  0  0 19  0  0
   -0.0125    2.1884   -0.4547 Cl  0  0  0  0  0  0  0  0  0 20  0  0
    2.7405   -0.9337   -0.4120 H   0  0  0  0  0  0  0  0  0 27  0  0
    1.3099   -2.4761    0.2637 H   0  0  0  0  0  0  0  0  0 28  0  0
   -1.9036   -1.3448    0.7600 C   0  0  0  0  0  0  0  0  0  8  0  0
   -1.8096   -0.0380    0.4537 O   0  0  0  0  0  0  0  0  0  9  0  0
   -2.6862    0.3674    0.5484 H   0  0  0  0  0  0  0  0  0 10  0  0
   -6.0749   -0.4913    1.5662 H   0  0  0  0  0  0  0  0  0 32  0  0
   -5.8370   -2.1462    0.9655 H   0  0  0  0  0  0  0  0  0 33  0  0
  1  2  1  0
  1  3  1  0
  3  4  1  0
  4  5  4  0
  5  6  1  0
  5  7  4  0
  7  8  1  0
  7  9  4  0
  9 10  1  0
  9 11  4  0
 11 12  1  0
 12 13  2  0
 13 14  1  0
 14 15  1  0
 15 16  4  0
 16 17  4  0
 17 18  1  0
 17 19  4  0
 19 20  1  0
 20 21  1  6
 20 22  1  0
 20 23  1  0
 19 24  4  0
 24 25  1  0
 24 26  4  0
 26 27  1  0
 14 28  1  0
 12 29  1  0
 11 30  4  0
 30 31  1  0
 31 32  1  0
  1 33  1  0
  1 34  1  0
 30  4  4  0
 26 15  4  0
M  END
>  <sample_id>  (382)
train::COc1cccc(_C=N_Nc2ncc(C(F)(F)F)cc2Cl)c1O__gen0000

>  <partition>  (382)
BAT_EXTERNAL_CONFIRM

>  <method>  (382)
BA_seed193

>  <candidate>  (382)
primary

$$$$
train::COc1cccc(_C=N_Nc2ncc(C(F)(F)F)cc2Cl)c1O__gen0001
     RDKit          3D

 34 35  0  0  0  0  0  0  0  0999 V2000
    3.0895    5.4623   -2.3933 C   0  0  0  0  0  0  0  0  0  0  0  0
    2.9137    6.1502   -3.2255 H   0  0  0  0  0  0  0  0  0  1  0  0
    2.0502    4.5247   -2.4481 O   0  0  0  0  0  0  0  0  0  2  0  0
    2.0031    3.5192   -1.5084 C   0  0  0  0  0  0  0  0  0  3  0  0
    2.9249    3.3447   -0.4759 C   0  0  0  0  0  0  0  0  0  4  0  0
    3.7571    4.0278   -0.3711 H   0  0  0  0  0  0  0  0  0 31  0  0
    2.7899    2.2870    0.4042 C   0  0  0  0  0  0  0  0  0  5  0  0
    3.5006    2.1702    1.2036 H   0  0  0  0  0  0  0  0  0 30  0  0
    1.7180    1.4182    0.2882 C   0  0  0  0  0  0  0  0  0  6  0  0
    1.5983    0.5896    0.9663 H   0  0  0  0  0  0  0  0  0 29  0  0
    0.7836    1.5692   -0.7410 C   0  0  0  0  0  0  0  0  0  7  0  0
   -0.3209    0.6700   -0.8828 C   0  0  0  0  0  0  0  0  0 11  0  0
   -0.4776   -0.3308   -0.1054 N   0  0  0  0  0  0  0  0  0 12  0  0
   -1.5315   -1.1251   -0.2862 N   0  0  0  0  0  0  0  0  0 13  0  0
   -1.7588   -2.2154    0.5066 C   0  0  0  0  0  0  0  0  0 14  0  0
   -0.8984   -2.4767    1.4785 N   0  0  0  0  0  0  0  0  0 15  0  0
   -1.0954   -3.5147    2.2616 C   0  0  0  0  0  0  0  0  0 16  0  0
   -0.3563   -3.6772    3.0305 H   0  0  0  0  0  0  0  0  0 26  0  0
   -2.1724   -4.3800    2.1021 C   0  0  0  0  0  0  0  0  0 17  0  0
   -2.3904   -5.5450    3.0219 C   0  0  1  0  0  0  0  0  0 22  0  0
   -2.8438   -6.6337    2.3702 F   0  0  0  0  0  0  0  0  0 23  0  0
   -1.2717   -5.9181    3.6586 F   0  0  0  0  0  0  0  0  0 24  0  0
   -3.3020   -5.2814    3.9778 F   0  0  0  0  0  0  0  0  0 25  0  0
   -3.0915   -4.1269    1.0858 C   0  0  0  0  0  0  0  0  0 18  0  0
   -3.9459   -4.7803    0.9375 H   0  0  0  0  0  0  0  0  0 21  0  0
   -2.8869   -3.0289    0.2729 C   0  0  0  0  0  0  0  0  0 19  0  0
   -3.9865   -2.6726   -1.0043 Cl  0  0  0  0  0  0  0  0  0 20  0  0
   -2.1966   -0.9417   -1.0324 H   0  0  0  0  0  0  0  0  0 27  0  0
   -1.0188    0.8714   -1.7011 H   0  0  0  0  0  0  0  0  0 28  0  0
    0.9285    2.6374   -1.6414 C   0  0  0  0  0  0  0  0  0  8  0  0
    0.0431    2.8111   -2.6386 O   0  0  0  0  0  0  0  0  0  9  0  0
    0.3114    3.5941   -3.1443 H   0  0  0  0  0  0  0  0  0 10  0  0
    4.0634    4.9825   -2.5137 H   0  0  0  0  0  0  0  0  0 32  0  0
    3.0702    6.0190   -1.4529 H   0  0  0  0  0  0  0  0  0 33  0  0
  1  2  1  0
  1  3  1  0
  3  4  1  0
  4  5  4  0
  5  6  1  0
  5  7  4  0
  7  8  1  0
  7  9  4  0
  9 10  1  0
  9 11  4  0
 11 12  1  0
 12 13  2  0
 13 14  1  0
 14 15  1  0
 15 16  4  0
 16 17  4  0
 17 18  1  0
 17 19  4  0
 19 20  1  0
 20 21  1  6
 20 22  1  0
 20 23  1  0
 19 24  4  0
 24 25  1  0
 24 26  4  0
 26 27  1  0
 14 28  1  0
 12 29  1  0
 11 30  4  0
 30 31  1  0
 31 32  1  0
  1 33  1  0
  1 34  1  0
 30  4  4  0
 26 15  4  0
M  END
>  <sample_id>  (383)
train::COc1cccc(_C=N_Nc2ncc(C(F)(F)F)cc2Cl)c1O__gen0001

>  <partition>  (383)
BAT_EXTERNAL_CONFIRM

>  <method>  (383)
BA_seed193

>  <candidate>  (383)
primary

$$$$
train::COc1cccc(_C=N_Nc2ncc(C(F)(F)F)cc2Cl)c1O__gen0002
     RDKit          3D

 34 35  0  0  0  0  0  0  0  0999 V2000
   -0.0521   -1.0192    5.7420 C   0  0  0  0  0  0  0  0  0  0  0  0
   -1.0152   -1.4212    6.0398 H   0  0  0  0  0  0  0  0  0  1  0  0
   -0.1582   -0.7400    4.3725 O   0  0  0  0  0  0  0  0  0  2  0  0
    0.9238   -0.2100    3.7148 C   0  0  0  0  0  0  0  0  0  3  0  0
    2.1403    0.1099    4.3147 C   0  0  0  0  0  0  0  0  0  4  0  0
    2.2854   -0.0382    5.3751 H   0  0  0  0  0  0  0  0  0 31  0  0
    3.1583    0.6546    3.5475 C   0  0  0  0  0  0  0  0  0  5  0  0
    4.0970    0.9181    4.0135 H   0  0  0  0  0  0  0  0  0 30  0  0
    2.9669    0.8669    2.1879 C   0  0  0  0  0  0  0  0  0  6  0  0
    3.7662    1.2963    1.6062 H   0  0  0  0  0  0  0  0  0 29  0  0
    1.7722    0.5307    1.5677 C   0  0  0  0  0  0  0  0  0  7  0  0
    1.6455    0.7592    0.1575 C   0  0  0  0  0  0  0  0  0 11  0  0
    0.6469    0.4220   -0.5509 N   0  0  0  0  0  0  0  0  0 12  0  0
    0.6517    0.6861   -1.8540 N   0  0  0  0  0  0  0  0  0 13  0  0
   -0.3244    0.3573   -2.7340 C   0  0  0  0  0  0  0  0  0 14  0  0
   -0.0954    0.7639   -3.9888 N   0  0  0  0  0  0  0  0  0 15  0  0
   -0.9721    0.5269   -4.9401 C   0  0  0  0  0  0  0  0  0 16  0  0
   -0.7287    0.8943   -5.9249 H   0  0  0  0  0  0  0  0  0 26  0  0
   -2.1651   -0.1364   -4.6950 C   0  0  0  0  0  0  0  0  0 17  0  0
   -3.1180   -0.3828   -5.8151 C   0  0  1  0  0  0  0  0  0 22  0  0
   -4.3431   -0.7676   -5.4029 F   0  0  0  0  0  0  0  0  0 23  0  0
   -3.3192    0.7014   -6.5924 F   0  0  0  0  0  0  0  0  0 24  0  0
   -2.7058   -1.3583   -6.6506 F   0  0  0  0  0  0  0  0  0 25  0  0
   -2.4411   -0.5732   -3.4037 C   0  0  0  0  0  0  0  0  0 18  0  0
   -3.3488   -1.1040   -3.1699 H   0  0  0  0  0  0  0  0  0 21  0  0
   -1.5125   -0.3361   -2.3990 C   0  0  0  0  0  0  0  0  0 19  0  0
   -1.8484   -0.9018   -0.8106 Cl  0  0  0  0  0  0  0  0  0 20  0  0
    1.4433    1.1577   -2.2860 H   0  0  0  0  0  0  0  0  0 27  0  0
    2.4996    1.2560   -0.3251 H   0  0  0  0  0  0  0  0  0 28  0  0
    0.7254   -0.0145    2.3377 C   0  0  0  0  0  0  0  0  0  8  0  0
   -0.4522   -0.3518    1.7990 O   0  0  0  0  0  0  0  0  0  9  0  0
   -1.0138   -0.7127    2.5053 H   0  0  0  0  0  0  0  0  0 10  0  0
    0.7422   -1.7382    5.9453 H   0  0  0  0  0  0  0  0  0 32  0  0
    0.1494   -0.0954    6.3164 H   0  0  0  0  0  0  0  0  0 33  0  0
  1  2  1  0
  1  3  1  0
  3  4  1  0
  4  5  4  0
  5  6  1  0
  5  7  4  0
  7  8  1  0
  7  9  4  0
  9 10  1  0
  9 11  4  0
 11 12  1  0
 12 13  2  0
 13 14  1  0
 14 15  1  0
 15 16  4  0
 16 17  4  0
 17 18  1  0
 17 19  4  0
 19 20  1  0
 20 21  1  1
 20 22  1  0
 20 23  1  0
 19 24  4  0
 24 25  1  0
 24 26  4  0
 26 27  1  0
 14 28  1  0
 12 29  1  0
 11 30  4  0
 30 31  1  0
 31 32  1  0
  1 33  1  0
  1 34  1  0
 30  4  4  0
 26 15  4  0
M  END
>  <sample_id>  (384)
train::COc1cccc(_C=N_Nc2ncc(C(F)(F)F)cc2Cl)c1O__gen0002

>  <partition>  (384)
BAT_EXTERNAL_CONFIRM

>  <method>  (384)
BA_seed193

>  <candidate>  (384)
primary

$$$$
train::C[C@H](NC(N)=O)C(=O)OCC(=O)NCc1cccs1__gen0000
     RDKit          3D

 34 34  0  0  0  0  0  0  0  0999 V2000
   -1.1144    1.7694   -3.2060 C   0  0  0  0  0  0  0  0  0  0  0  0
   -1.0421    0.7200   -2.1027 C   0  0  2  0  0  0  0  0  0  1  0  0
   -2.3370    0.1045   -1.8989 N   0  0  0  0  0  0  0  0  0  2  0  0
   -2.4501   -0.8981   -0.9609 C   0  0  0  0  0  0  0  0  0  3  0  0
   -1.4907   -1.3961   -0.3991 O   0  0  0  0  0  0  0  0  0  4  0  0
   -3.7219   -1.3714   -0.7995 N   0  0  0  0  0  0  0  0  0  5  0  0
   -4.5268   -0.8710   -1.1266 H   0  0  0  0  0  0  0  0  0  6  0  0
   -3.8419   -2.1115   -0.1282 H   0  0  0  0  0  0  0  0  0  7  0  0
   -3.1485    0.6502   -2.1321 H   0  0  0  0  0  0  0  0  0  8  0  0
   -0.4779    1.3684   -0.8436 C   0  0  0  0  0  0  0  0  0  9  0  0
    0.6412    1.8091   -0.7522 O   0  0  0  0  0  0  0  0  0 10  0  0
   -1.3838    1.4219    0.1419 O   0  0  0  0  0  0  0  0  0 11  0  0
   -0.9559    1.9429    1.3850 C   0  0  0  0  0  0  0  0  0 12  0  0
   -1.8697    2.1828    1.9374 H   0  0  0  0  0  0  0  0  0 13  0  0
   -0.3719    2.8584    1.2350 H   0  0  0  0  0  0  0  0  0 14  0  0
   -0.0909    1.0082    2.2268 C   0  0  0  0  0  0  0  0  0 15  0  0
    0.4283    1.3983    3.2472 O   0  0  0  0  0  0  0  0  0 16  0  0
    0.0470   -0.2519    1.7515 N   0  0  0  0  0  0  0  0  0 17  0  0
   -0.4205   -0.5535    0.9014 H   0  0  0  0  0  0  0  0  0 18  0  0
    0.9465   -1.2000    2.3448 C   0  0  0  0  0  0  0  0  0 19  0  0
    2.1771   -1.3641    1.5151 C   0  0  0  0  0  0  0  0  0 20  0  0
    3.4784   -1.1977    1.8797 C   0  0  0  0  0  0  0  0  0 21  0  0
    3.7743   -0.9600    2.8826 H   0  0  0  0  0  0  0  0  0 27  0  0
    4.3836   -1.4170    0.8267 C   0  0  0  0  0  0  0  0  0 22  0  0
    5.4449   -1.3280    0.9201 H   0  0  0  0  0  0  0  0  0 26  0  0
    3.7608   -1.7011   -0.3442 C   0  0  0  0  0  0  0  0  0 23  0  0
    4.1937   -1.9006   -1.3042 H   0  0  0  0  0  0  0  0  0 25  0  0
    2.0440   -1.7406   -0.1759 S   0  0  0  0  0  0  0  0  0 24  0  0
    1.2217   -0.8181    3.3347 H   0  0  0  0  0  0  0  0  0 28  0  0
    0.4333   -2.1626    2.4603 H   0  0  0  0  0  0  0  0  0 29  0  0
   -0.3371   -0.0704   -2.3796 H   0  0  0  0  0  0  0  0  0 30  0  0
   -0.1391    2.2233   -3.3551 H   0  0  0  0  0  0  0  0  0 31  0  0
   -1.8240    2.5500   -2.9422 H   0  0  0  0  0  0  0  0  0 32  0  0
   -1.4305    1.3062   -4.1392 H   0  0  0  0  0  0  0  0  0 33  0  0
  1  2  1  0
  2  3  1  0
  3  4  1  0
  4  5  2  0
  4  6  1  0
  6  7  1  0
  6  8  1  0
  3  9  1  0
  2 10  1  0
 10 11  2  0
 10 12  1  0
 12 13  1  0
 13 14  1  0
 13 15  1  0
 13 16  1  0
 16 17  2  0
 16 18  1  0
 18 19  1  0
 18 20  1  0
 20 21  1  0
 21 22  4  0
 22 23  1  0
 22 24  4  0
 24 25  1  0
 24 26  4  0
 26 27  1  0
 26 28  4  0
 20 29  1  0
 20 30  1  0
  2 31  1  6
  1 32  1  0
  1 33  1  0
  1 34  1  0
 28 21  4  0
M  END
>  <sample_id>  (385)
train::C[C@H](NC(N)=O)C(=O)OCC(=O)NCc1cccs1__gen0000

>  <partition>  (385)
BAT_EXTERNAL_CONFIRM

>  <method>  (385)
BA_seed193

>  <candidate>  (385)
primary

$$$$
train::C[C@H](NC(N)=O)C(=O)OCC(=O)NCc1cccs1__gen0001
     RDKit          3D

 34 34  0  0  0  0  0  0  0  0999 V2000
   -1.7807    0.0435   -3.7091 C   0  0  0  0  0  0  0  0  0  0  0  0
   -0.9911   -0.1913   -2.4221 C   0  0  2  0  0  0  0  0  0  1  0  0
   -0.6435   -1.6009   -2.2243 N   0  0  0  0  0  0  0  0  0  2  0  0
   -0.0738   -1.9256   -1.0293 C   0  0  0  0  0  0  0  0  0  3  0  0
    0.2678   -1.0518   -0.2297 O   0  0  0  0  0  0  0  0  0  4  0  0
    0.1477   -3.2169   -0.8232 N   0  0  0  0  0  0  0  0  0  5  0  0
   -0.2825   -3.9455   -1.3581 H   0  0  0  0  0  0  0  0  0  6  0  0
    0.5845   -3.4962    0.0468 H   0  0  0  0  0  0  0  0  0  7  0  0
   -1.2623   -2.2803   -2.6760 H   0  0  0  0  0  0  0  0  0  8  0  0
   -1.7965    0.2716   -1.2211 C   0  0  0  0  0  0  0  0  0  9  0  0
   -2.7006   -0.3760   -0.7480 O   0  0  0  0  0  0  0  0  0 10  0  0
   -1.4179    1.4673   -0.7861 O   0  0  0  0  0  0  0  0  0 11  0  0
   -2.0676    2.0172    0.3447 C   0  0  0  0  0  0  0  0  0 12  0  0
   -2.2459    3.0808    0.1429 H   0  0  0  0  0  0  0  0  0 13  0  0
   -3.0324    1.5140    0.4909 H   0  0  0  0  0  0  0  0  0 14  0  0
   -1.2620    1.9179    1.6482 C   0  0  0  0  0  0  0  0  0 15  0  0
   -1.3678    2.7707    2.5060 O   0  0  0  0  0  0  0  0  0 16  0  0
   -0.5100    0.8111    1.7630 N   0  0  0  0  0  0  0  0  0 17  0  0
   -0.3880    0.1710    0.9790 H   0  0  0  0  0  0  0  0  0 18  0  0
    0.3777    0.5788    2.8824 C   0  0  0  0  0  0  0  0  0 19  0  0
    1.7396    0.2807    2.3961 C   0  0  0  0  0  0  0  0  0 20  0  0
    2.6826    1.1657    1.9548 C   0  0  0  0  0  0  0  0  0 21  0  0
    2.5422    2.2291    1.9620 H   0  0  0  0  0  0  0  0  0 27  0  0
    3.8422    0.5284    1.4732 C   0  0  0  0  0  0  0  0  0 22  0  0
    4.6956    1.0617    1.0869 H   0  0  0  0  0  0  0  0  0 26  0  0
    3.7711   -0.8179    1.5707 C   0  0  0  0  0  0  0  0  0 23  0  0
    4.5072   -1.5538    1.2733 H   0  0  0  0  0  0  0  0  0 25  0  0
    2.2758   -1.3496    2.2129 S   0  0  0  0  0  0  0  0  0 24  0  0
    0.3460    1.4951    3.5039 H   0  0  0  0  0  0  0  0  0 28  0  0
   -0.0085   -0.2608    3.4829 H   0  0  0  0  0  0  0  0  0 29  0  0
   -0.0458    0.3741   -2.4454 H   0  0  0  0  0  0  0  0  0 30  0  0
   -2.7504   -0.4383   -3.6292 H   0  0  0  0  0  0  0  0  0 31  0  0
   -1.2332   -0.3694   -4.5572 H   0  0  0  0  0  0  0  0  0 32  0  0
   -1.9195    1.0957   -3.8617 H   0  0  0  0  0  0  0  0  0 33  0  0
  1  2  1  0
  2  3  1  0
  3  4  1  0
  4  5  2  0
  4  6  1  0
  6  7  1  0
  6  8  1  0
  3  9  1  0
  2 10  1  0
 10 11  2  0
 10 12  1  0
 12 13  1  0
 13 14  1  0
 13 15  1  0
 13 16  1  0
 16 17  2  0
 16 18  1  0
 18 19  1  0
 18 20  1  0
 20 21  1  0
 21 22  4  0
 22 23  1  0
 22 24  4  0
 24 25  1  0
 24 26  4  0
 26 27  1  0
 26 28  4  0
 20 29  1  0
 20 30  1  0
  2 31  1  6
  1 32  1  0
  1 33  1  0
  1 34  1  0
 28 21  4  0
M  END
>  <sample_id>  (386)
train::C[C@H](NC(N)=O)C(=O)OCC(=O)NCc1cccs1__gen0001

>  <partition>  (386)
BAT_EXTERNAL_CONFIRM

>  <method>  (386)
BA_seed193

>  <candidate>  (386)
primary

$$$$
train::C[C@H](NC(N)=O)C(=O)OCC(=O)NCc1cccs1__gen0002
     RDKit          3D

 34 34  0  0  0  0  0  0  0  0999 V2000
    0.4659   -4.3543    1.0825 C   0  0  0  0  0  0  0  0  0  0  0  0
    0.2019   -2.8754    0.8518 C   0  0  2  0  0  0  0  0  0  1  0  0
   -0.7203   -2.6703   -0.2412 N   0  0  0  0  0  0  0  0  0  2  0  0
   -1.3033   -1.4506   -0.3771 C   0  0  0  0  0  0  0  0  0  3  0  0
   -1.2577   -0.5889    0.4774 O   0  0  0  0  0  0  0  0  0  4  0  0
   -1.9402   -1.2492   -1.5598 N   0  0  0  0  0  0  0  0  0  5  0  0
   -2.4495   -0.3928   -1.7014 H   0  0  0  0  0  0  0  0  0  6  0  0
   -2.0414   -1.9736   -2.2513 H   0  0  0  0  0  0  0  0  0  7  0  0
   -0.5100   -3.2086   -1.0758 H   0  0  0  0  0  0  0  0  0  8  0  0
    1.5034   -2.1380    0.4714 C   0  0  0  0  0  0  0  0  0  9  0  0
    2.2681   -2.5380   -0.3645 O   0  0  0  0  0  0  0  0  0 10  0  0
    1.6317   -1.0032    1.1492 O   0  0  0  0  0  0  0  0  0 11  0  0
    2.6691   -0.1114    0.7637 C   0  0  0  0  0  0  0  0  0 12  0  0
    3.4976   -0.6695    0.3192 H   0  0  0  0  0  0  0  0  0 13  0  0
    3.0055    0.4109    1.6613 H   0  0  0  0  0  0  0  0  0 14  0  0
    2.1989    0.9490   -0.2590 C   0  0  0  0  0  0  0  0  0 15  0  0
    3.0180    1.6021   -0.8779 O   0  0  0  0  0  0  0  0  0 16  0  0
    0.8708    1.0819   -0.3692 N   0  0  0  0  0  0  0  0  0 17  0  0
    0.2300    0.5353    0.1924 H   0  0  0  0  0  0  0  0  0 18  0  0
    0.2750    2.0222   -1.2885 C   0  0  0  0  0  0  0  0  0 19  0  0
   -0.7674    2.8350   -0.5949 C   0  0  0  0  0  0  0  0  0 20  0  0
   -0.6256    4.0415    0.0227 C   0  0  0  0  0  0  0  0  0 21  0  0
    0.3053    4.5769    0.0484 H   0  0  0  0  0  0  0  0  0 27  0  0
   -1.8210    4.5051    0.6132 C   0  0  0  0  0  0  0  0  0 22  0  0
   -1.9136    5.4286    1.1550 H   0  0  0  0  0  0  0  0  0 26  0  0
   -2.8521    3.6383    0.4498 C   0  0  0  0  0  0  0  0  0 23  0  0
   -3.8622    3.7294    0.7799 H   0  0  0  0  0  0  0  0  0 25  0  0
   -2.3874    2.2360   -0.4416 S   0  0  0  0  0  0  0  0  0 24  0  0
    1.0810    2.6709   -1.6556 H   0  0  0  0  0  0  0  0  0 28  0  0
   -0.1708    1.4867   -2.1343 H   0  0  0  0  0  0  0  0  0 29  0  0
   -0.2121   -2.3844    1.7411 H   0  0  0  0  0  0  0  0  0 30  0  0
    1.1043   -4.4905    1.9460 H   0  0  0  0  0  0  0  0  0 31  0  0
    0.9768   -4.7730    0.2203 H   0  0  0  0  0  0  0  0  0 32  0  0
   -0.4687   -4.8780    1.2468 H   0  0  0  0  0  0  0  0  0 33  0  0
  1  2  1  0
  2  3  1  0
  3  4  1  0
  4  5  2  0
  4  6  1  0
  6  7  1  0
  6  8  1  0
  3  9  1  0
  2 10  1  0
 10 11  2  0
 10 12  1  0
 12 13  1  0
 13 14  1  0
 13 15  1  0
 13 16  1  0
 16 17  2  0
 16 18  1  0
 18 19  1  0
 18 20  1  0
 20 21  1  0
 21 22  4  0
 22 23  1  0
 22 24  4  0
 24 25  1  0
 24 26  4  0
 26 27  1  0
 26 28  4  0
 20 29  1  0
 20 30  1  0
  2 31  1  1
  1 32  1  0
  1 33  1  0
  1 34  1  0
 28 21  4  0
M  END
>  <sample_id>  (387)
train::C[C@H](NC(N)=O)C(=O)OCC(=O)NCc1cccs1__gen0002

>  <partition>  (387)
BAT_EXTERNAL_CONFIRM

>  <method>  (387)
BA_seed193

>  <candidate>  (387)
primary

$$$$
train::O=C(CN(C(=O)CNS(=O)(=O)c1ccc(F)cc1)c1ccc(F)cc1)NCc1ccco1__gen0000
     RDKit          3D

 51 53  0  0  0  0  0  0  0  0999 V2000
   -1.3938   -2.3709    3.1855 O   0  0  0  0  0  0  0  0  0  0  0  0
   -1.0735   -1.2853    2.7347 C   0  0  0  0  0  0  0  0  0  1  0  0
   -1.8828   -0.4770    2.0249 N   0  0  0  0  0  0  0  0  0  2  0  0
   -1.5065    0.3642    1.6012 H   0  0  0  0  0  0  0  0  0  3  0  0
   -3.1595   -0.9382    1.5200 C   0  0  0  0  0  0  0  0  0  4  0  0
   -2.9747   -1.5932    0.1861 C   0  0  0  0  0  0  0  0  0  5  0  0
   -2.9079   -1.0640   -1.0712 C   0  0  0  0  0  0  0  0  0  6  0  0
   -3.0230   -0.0371   -1.3523 H   0  0  0  0  0  0  0  0  0 12  0  0
   -2.6371   -2.1488   -1.9273 C   0  0  0  0  0  0  0  0  0  7  0  0
   -2.5366   -2.1166   -2.9949 H   0  0  0  0  0  0  0  0  0 11  0  0
   -2.5715   -3.2522   -1.1281 C   0  0  0  0  0  0  0  0  0  8  0  0
   -2.3883   -4.2896   -1.3449 H   0  0  0  0  0  0  0  0  0 10  0  0
   -2.7581   -2.9199    0.1604 O   0  0  0  0  0  0  0  0  0  9  0  0
   -3.8326   -0.0911    1.4472 H   0  0  0  0  0  0  0  0  0 13  0  0
   -3.5403   -1.6713    2.2509 H   0  0  0  0  0  0  0  0  0 14  0  0
    0.3644   -0.7382    2.8516 C   0  0  0  0  0  0  0  0  0 15  0  0
    0.9610   -0.6545    1.5422 N   0  0  0  0  0  0  0  0  0 16  0  0
    1.3393    0.5936    1.0752 C   0  0  0  0  0  0  0  0  0 17  0  0
    1.3694    1.5623    1.8015 O   0  0  0  0  0  0  0  0  0 18  0  0
    1.6921    0.6934   -0.4105 C   0  0  0  0  0  0  0  0  0 19  0  0
    0.5325    0.7729   -1.2592 N   0  0  0  0  0  0  0  0  0 20  0  0
   -0.6217    1.9479   -0.8525 S   0  0  1  0  0  6  0  0  0 21  0  0
   -1.6287    1.8702   -1.8564 O   0  0  0  0  0  0  0  0  0 22  0  0
   -1.0456    1.7937    0.5250 O   0  0  0  0  0  0  0  0  0 23  0  0
    0.3467    3.4339   -1.0484 C   0  0  0  0  0  0  0  0  0 24  0  0
    0.5028    3.9315   -2.3317 C   0  0  0  0  0  0  0  0  0 25  0  0
    0.0199    3.4179   -3.1588 H   0  0  0  0  0  0  0  0  0 34  0  0
    1.2848    5.0591   -2.5263 C   0  0  0  0  0  0  0  0  0 26  0  0
    1.4336    5.4807   -3.5058 H   0  0  0  0  0  0  0  0  0 33  0  0
    1.8668    5.6612   -1.4193 C   0  0  0  0  0  0  0  0  0 27  0  0
    2.6167    6.7554   -1.6217 F   0  0  0  0  0  0  0  0  0 32  0  0
    1.7027    5.1736   -0.1303 C   0  0  0  0  0  0  0  0  0 28  0  0
    2.1731    5.6754    0.6857 H   0  0  0  0  0  0  0  0  0 31  0  0
    0.9225    4.0371    0.0485 C   0  0  0  0  0  0  0  0  0 29  0  0
    0.7699    3.6193    1.0314 H   0  0  0  0  0  0  0  0  0 30  0  0
    0.0683   -0.0940   -1.4570 H   0  0  0  0  0  0  0  0  0 35  0  0
    2.2588    1.6122   -0.5268 H   0  0  0  0  0  0  0  0  0 36  0  0
    2.2737   -0.1521   -0.7370 H   0  0  0  0  0  0  0  0  0 37  0  0
    1.1603   -1.8540    0.8459 C   0  0  0  0  0  0  0  0  0 38  0  0
    2.0214   -2.8043    1.4121 C   0  0  0  0  0  0  0  0  0 39  0  0
    2.4965   -2.5779    2.3482 H   0  0  0  0  0  0  0  0  0 48  0  0
    2.2549   -4.0103    0.7866 C   0  0  0  0  0  0  0  0  0 40  0  0
    2.9199   -4.7462    1.2246 H   0  0  0  0  0  0  0  0  0 47  0  0
    1.6200   -4.2821   -0.3985 C   0  0  0  0  0  0  0  0  0 41  0  0
    1.8250   -5.4509   -0.9965 F   0  0  0  0  0  0  0  0  0 46  0  0
    0.7483   -3.3817   -0.9740 C   0  0  0  0  0  0  0  0  0 42  0  0
    0.2738   -3.6344   -1.9047 H   0  0  0  0  0  0  0  0  0 45  0  0
    0.5254   -2.1658   -0.3508 C   0  0  0  0  0  0  0  0  0 43  0  0
   -0.1546   -1.4731   -0.7807 H   0  0  0  0  0  0  0  0  0 44  0  0
    0.9429   -1.4257    3.4781 H   0  0  0  0  0  0  0  0  0 49  0  0
    0.3497    0.2446    3.2981 H   0  0  0  0  0  0  0  0  0 50  0  0
  1  2  2  0
  2  3  1  0
  3  4  1  0
  3  5  1  0
  5  6  1  0
  6  7  4  0
  7  8  1  0
  7  9  4  0
  9 10  1  0
  9 11  4  0
 11 12  1  0
 11 13  4  0
  5 14  1  0
  5 15  1  0
  2 16  1  0
 16 17  1  0
 17 18  1  0
 18 19  2  0
 18 20  1  0
 20 21  1  0
 22 21  1  6
 22 23  2  0
 22 24  2  0
 22 25  1  0
 25 26  4  0
 26 27  1  0
 26 28  4  0
 28 29  1  0
 28 30  4  0
 30 31  1  0
 30 32  4  0
 32 33  1  0
 32 34  4  0
 34 35  1  0
 21 36  1  0
 20 37  1  0
 20 38  1  0
 17 39  1  0
 39 40  4  0
 40 41  1  0
 40 42  4  0
 42 43  1  0
 42 44  4  0
 44 45  1  0
 44 46  4  0
 46 47  1  0
 46 48  4  0
 48 49  1  0
 16 50  1  0
 16 51  1  0
 13  6  4  0
 34 25  4  0
 48 39  4  0
M  END
>  <sample_id>  (388)
train::O=C(CN(C(=O)CNS(=O)(=O)c1ccc(F)cc1)c1ccc(F)cc1)NCc1ccco1__gen0000

>  <partition>  (388)
BAT_EXTERNAL_CONFIRM

>  <method>  (388)
BA_seed193

>  <candidate>  (388)
primary

$$$$
train::O=C(CN(C(=O)CNS(=O)(=O)c1ccc(F)cc1)c1ccc(F)cc1)NCc1ccco1__gen0001
     RDKit          3D

 51 53  0  0  0  0  0  0  0  0999 V2000
   -1.5785   -3.1563    2.2202 O   0  0  0  0  0  0  0  0  0  0  0  0
   -1.2543   -3.0744    1.0514 C   0  0  0  0  0  0  0  0  0  1  0  0
   -2.0553   -2.6657    0.0633 N   0  0  0  0  0  0  0  0  0  2  0  0
   -1.6961   -2.6159   -0.8839 H   0  0  0  0  0  0  0  0  0  3  0  0
   -3.3744   -2.1111    0.3264 C   0  0  0  0  0  0  0  0  0  4  0  0
   -3.3159   -0.6541    0.5121 C   0  0  0  0  0  0  0  0  0  5  0  0
   -2.7916    0.1042    1.5240 C   0  0  0  0  0  0  0  0  0  6  0  0
   -2.3602   -0.2597    2.4454 H   0  0  0  0  0  0  0  0  0 12  0  0
   -2.9218    1.4553    1.1292 C   0  0  0  0  0  0  0  0  0  7  0  0
   -2.6151    2.3271    1.6782 H   0  0  0  0  0  0  0  0  0 11  0  0
   -3.5211    1.4270   -0.0922 C   0  0  0  0  0  0  0  0  0  8  0  0
   -3.8200    2.2033   -0.7663 H   0  0  0  0  0  0  0  0  0 10  0  0
   -3.7691    0.1607   -0.4704 O   0  0  0  0  0  0  0  0  0  9  0  0
   -3.7375   -2.6058    1.2348 H   0  0  0  0  0  0  0  0  0 13  0  0
   -4.0363   -2.3638   -0.5176 H   0  0  0  0  0  0  0  0  0 14  0  0
    0.1702   -3.4641    0.6016 C   0  0  0  0  0  0  0  0  0 15  0  0
    0.9048   -2.3569    0.0220 N   0  0  0  0  0  0  0  0  0 16  0  0
    0.8053   -2.1282   -1.2747 C   0  0  0  0  0  0  0  0  0 17  0  0
    0.1629   -2.8520   -2.0339 O   0  0  0  0  0  0  0  0  0 18  0  0
    1.5253   -0.9111   -1.8974 C   0  0  0  0  0  0  0  0  0 19  0  0
    0.5905   -0.1942   -2.7318 N   0  0  0  0  0  0  0  0  0 20  0  0
   -0.5958    0.5423   -1.8119 S   0  0  1  0  0  6  0  0  0 21  0  0
   -1.7634    0.7239   -2.6261 O   0  0  0  0  0  0  0  0  0 22  0  0
   -0.7441   -0.1444   -0.5402 O   0  0  0  0  0  0  0  0  0 23  0  0
    0.1920    2.1072   -1.4584 C   0  0  0  0  0  0  0  0  0 24  0  0
    0.6281    2.3707   -0.1838 C   0  0  0  0  0  0  0  0  0 25  0  0
    0.4898    1.6257    0.5898 H   0  0  0  0  0  0  0  0  0 34  0  0
    1.2537    3.5809    0.0919 C   0  0  0  0  0  0  0  0  0 26  0  0
    1.6047    3.8145    1.0714 H   0  0  0  0  0  0  0  0  0 33  0  0
    1.3915    4.4865   -0.9497 C   0  0  0  0  0  0  0  0  0 27  0  0
    1.9940    5.6668   -0.6958 F   0  0  0  0  0  0  0  0  0 32  0  0
    0.9532    4.2234   -2.2350 C   0  0  0  0  0  0  0  0  0 28  0  0
    1.0712    4.9678   -3.0039 H   0  0  0  0  0  0  0  0  0 31  0  0
    0.3327    3.0133   -2.4860 C   0  0  0  0  0  0  0  0  0 29  0  0
   -0.0425    2.7726   -3.4707 H   0  0  0  0  0  0  0  0  0 30  0  0
    0.1926   -0.7867   -3.4527 H   0  0  0  0  0  0  0  0  0 35  0  0
    2.3710   -1.2589   -2.4901 H   0  0  0  0  0  0  0  0  0 36  0  0
    1.8568   -0.2426   -1.1056 H   0  0  0  0  0  0  0  0  0 37  0  0
    1.6115   -1.5098    0.9333 C   0  0  0  0  0  0  0  0  0 38  0  0
    0.9363   -0.8629    1.9693 C   0  0  0  0  0  0  0  0  0 39  0  0
   -0.1049   -1.0389    2.1187 H   0  0  0  0  0  0  0  0  0 48  0  0
    1.6263   -0.0141    2.8114 C   0  0  0  0  0  0  0  0  0 40  0  0
    1.1171    0.4992    3.6125 H   0  0  0  0  0  0  0  0  0 47  0  0
    2.9768    0.1927    2.6036 C   0  0  0  0  0  0  0  0  0 41  0  0
    3.6439    1.0540    3.3944 F   0  0  0  0  0  0  0  0  0 46  0  0
    3.6781   -0.4659    1.6070 C   0  0  0  0  0  0  0  0  0 42  0  0
    4.7390   -0.3091    1.4978 H   0  0  0  0  0  0  0  0  0 45  0  0
    2.9777   -1.3149    0.7655 C   0  0  0  0  0  0  0  0  0 43  0  0
    3.5063   -1.8623   -0.0039 H   0  0  0  0  0  0  0  0  0 44  0  0
    0.7059   -3.8611    1.4686 H   0  0  0  0  0  0  0  0  0 49  0  0
    0.0883   -4.2340   -0.1618 H   0  0  0  0  0  0  0  0  0 50  0  0
  1  2  2  0
  2  3  1  0
  3  4  1  0
  3  5  1  0
  5  6  1  0
  6  7  4  0
  7  8  1  0
  7  9  4  0
  9 10  1  0
  9 11  4  0
 11 12  1  0
 11 13  4  0
  5 14  1  0
  5 15  1  0
  2 16  1  0
 16 17  1  0
 17 18  1  0
 18 19  2  0
 18 20  1  0
 20 21  1  0
 22 21  1  6
 22 23  2  0
 22 24  2  0
 22 25  1  0
 25 26  4  0
 26 27  1  0
 26 28  4  0
 28 29  1  0
 28 30  4  0
 30 31  1  0
 30 32  4  0
 32 33  1  0
 32 34  4  0
 34 35  1  0
 21 36  1  0
 20 37  1  0
 20 38  1  0
 17 39  1  0
 39 40  4  0
 40 41  1  0
 40 42  4  0
 42 43  1  0
 42 44  4  0
 44 45  1  0
 44 46  4  0
 46 47  1  0
 46 48  4  0
 48 49  1  0
 16 50  1  0
 16 51  1  0
 13  6  4  0
 34 25  4  0
 48 39  4  0
M  END
>  <sample_id>  (389)
train::O=C(CN(C(=O)CNS(=O)(=O)c1ccc(F)cc1)c1ccc(F)cc1)NCc1ccco1__gen0001

>  <partition>  (389)
BAT_EXTERNAL_CONFIRM

>  <method>  (389)
BA_seed193

>  <candidate>  (389)
primary

$$$$
train::O=C(CN(C(=O)CNS(=O)(=O)c1ccc(F)cc1)c1ccc(F)cc1)NCc1ccco1__gen0002
     RDKit          3D

 51 53  0  0  0  0  0  0  0  0999 V2000
    0.2657    0.2900    3.7607 O   0  0  0  0  0  0  0  0  0  0  0  0
   -0.0572    0.2379    2.5958 C   0  0  0  0  0  0  0  0  0  1  0  0
    0.5063    0.9683    1.6325 N   0  0  0  0  0  0  0  0  0  2  0  0
    0.2395    0.8629    0.6561 H   0  0  0  0  0  0  0  0  0  3  0  0
    1.6761    1.7915    1.8221 C   0  0  0  0  0  0  0  0  0  4  0  0
    2.7430    1.3372    0.8817 C   0  0  0  0  0  0  0  0  0  5  0  0
    3.5160    0.2164    0.8873 C   0  0  0  0  0  0  0  0  0  6  0  0
    3.5758   -0.5231    1.6696 H   0  0  0  0  0  0  0  0  0 12  0  0
    4.2410    0.2368   -0.3338 C   0  0  0  0  0  0  0  0  0  7  0  0
    4.9389   -0.4943   -0.6707 H   0  0  0  0  0  0  0  0  0 11  0  0
    3.8628    1.3793   -0.9670 C   0  0  0  0  0  0  0  0  0  8  0  0
    4.1302    1.7975   -1.9089 H   0  0  0  0  0  0  0  0  0 10  0  0
    2.9547    2.0550   -0.2462 O   0  0  0  0  0  0  0  0  0  9  0  0
    1.9866    1.6794    2.8708 H   0  0  0  0  0  0  0  0  0 13  0  0
    1.4444    2.8430    1.6213 H   0  0  0  0  0  0  0  0  0 14  0  0
   -1.2071   -0.6621    2.1368 C   0  0  0  0  0  0  0  0  0 15  0  0
   -0.9536   -1.3778    0.8935 N   0  0  0  0  0  0  0  0  0 16  0  0
   -1.5192   -0.8660   -0.2374 C   0  0  0  0  0  0  0  0  0 17  0  0
   -2.2984    0.0857   -0.2005 O   0  0  0  0  0  0  0  0  0 18  0  0
   -1.1743   -1.4945   -1.5591 C   0  0  0  0  0  0  0  0  0 19  0  0
   -1.3070   -0.4699   -2.5818 N   0  0  0  0  0  0  0  0  0 20  0  0
   -0.4728    0.9392   -2.2391 S   0  0  1  0  0  6  0  0  0 21  0  0
    0.4504    0.6607   -1.1646 O   0  0  0  0  0  0  0  0  0 22  0  0
    0.0852    1.4172   -3.4758 O   0  0  0  0  0  0  0  0  0 23  0  0
   -1.7110    2.1082   -1.7114 C   0  0  0  0  0  0  0  0  0 24  0  0
   -1.3709    3.0214   -0.7254 C   0  0  0  0  0  0  0  0  0 25  0  0
   -0.3867    2.9927   -0.2968 H   0  0  0  0  0  0  0  0  0 34  0  0
   -2.3024    3.9636   -0.3216 C   0  0  0  0  0  0  0  0  0 26  0  0
   -2.0707    4.6837    0.4560 H   0  0  0  0  0  0  0  0  0 33  0  0
   -3.5517    3.9563   -0.9165 C   0  0  0  0  0  0  0  0  0 27  0  0
   -4.4635    4.8592   -0.5175 F   0  0  0  0  0  0  0  0  0 32  0  0
   -3.8893    3.0570   -1.9086 C   0  0  0  0  0  0  0  0  0 28  0  0
   -4.8765    3.0992   -2.3498 H   0  0  0  0  0  0  0  0  0 31  0  0
   -2.9549    2.1265   -2.3164 C   0  0  0  0  0  0  0  0  0 29  0  0
   -3.1787    1.3975   -3.0771 H   0  0  0  0  0  0  0  0  0 30  0  0
   -1.1592   -0.7929   -3.5248 H   0  0  0  0  0  0  0  0  0 35  0  0
   -1.8769   -2.3077   -1.7659 H   0  0  0  0  0  0  0  0  0 36  0  0
   -0.1473   -1.9017   -1.5618 H   0  0  0  0  0  0  0  0  0 37  0  0
   -0.0892   -2.4849    0.8748 C   0  0  0  0  0  0  0  0  0 38  0  0
    1.2012   -2.3870    1.3905 C   0  0  0  0  0  0  0  0  0 39  0  0
    1.5359   -1.4550    1.8087 H   0  0  0  0  0  0  0  0  0 48  0  0
    2.0269   -3.4863    1.3920 C   0  0  0  0  0  0  0  0  0 40  0  0
    3.0410   -3.4232    1.7718 H   0  0  0  0  0  0  0  0  0 47  0  0
    1.5658   -4.6889    0.8738 C   0  0  0  0  0  0  0  0  0 41  0  0
    2.3981   -5.7523    0.8631 F   0  0  0  0  0  0  0  0  0 46  0  0
    0.2841   -4.8071    0.3694 C   0  0  0  0  0  0  0  0  0 42  0  0
   -0.0553   -5.7573    0.0119 H   0  0  0  0  0  0  0  0  0 45  0  0
   -0.5497   -3.7099    0.3912 C   0  0  0  0  0  0  0  0  0 43  0  0
   -1.5591   -3.7961    0.0117 H   0  0  0  0  0  0  0  0  0 44  0  0
   -1.3877   -1.3906    2.9373 H   0  0  0  0  0  0  0  0  0 49  0  0
   -2.0993   -0.0346    1.9979 H   0  0  0  0  0  0  0  0  0 50  0  0
  1  2  2  0
  2  3  1  0
  3  4  1  0
  3  5  1  0
  5  6  1  0
  6  7  4  0
  7  8  1  0
  7  9  4  0
  9 10  1  0
  9 11  4  0
 11 12  1  0
 11 13  4  0
  5 14  1  0
  5 15  1  0
  2 16  1  0
 16 17  1  0
 17 18  1  0
 18 19  2  0
 18 20  1  0
 20 21  1  0
 22 21  1  6
 22 23  2  0
 22 24  2  0
 22 25  1  0
 25 26  4  0
 26 27  1  0
 26 28  4  0
 28 29  1  0
 28 30  4  0
 30 31  1  0
 30 32  4  0
 32 33  1  0
 32 34  4  0
 34 35  1  0
 21 36  1  0
 20 37  1  0
 20 38  1  0
 17 39  1  0
 39 40  4  0
 40 41  1  0
 40 42  4  0
 42 43  1  0
 42 44  4  0
 44 45  1  0
 44 46  4  0
 46 47  1  0
 46 48  4  0
 48 49  1  0
 16 50  1  0
 16 51  1  0
 13  6  4  0
 34 25  4  0
 48 39  4  0
M  END
>  <sample_id>  (390)
train::O=C(CN(C(=O)CNS(=O)(=O)c1ccc(F)cc1)c1ccc(F)cc1)NCc1ccco1__gen0002

>  <partition>  (390)
BAT_EXTERNAL_CONFIRM

>  <method>  (390)
BA_seed193

>  <candidate>  (390)
primary

$$$$
train::COc1ccc(NC(=O)CSCC(=O)Nc2ccc(S(=O)(=O)N3CCCC3)cc2)cc1__gen0000
     RDKit          3D

 56 58  0  0  0  0  0  0  0  0999 V2000
    4.8810    0.3776    0.1437 C   0  0  0  0  0  0  0  0  0  0  0  0
    5.1979   -0.5676    0.6013 H   0  0  0  0  0  0  0  0  0  1  0  0
    4.3666    0.1863   -1.1514 O   0  0  0  0  0  0  0  0  0  2  0  0
    3.2609   -0.5906   -1.3015 C   0  0  0  0  0  0  0  0  0  3  0  0
    2.8381   -0.8040   -2.6103 C   0  0  0  0  0  0  0  0  0  4  0  0
    3.4297   -0.3951   -3.4197 H   0  0  0  0  0  0  0  0  0 53  0  0
    1.7282   -1.5759   -2.8750 C   0  0  0  0  0  0  0  0  0  5  0  0
    1.4294   -1.7483   -3.9086 H   0  0  0  0  0  0  0  0  0 52  0  0
    0.9789   -2.1285   -1.8378 C   0  0  0  0  0  0  0  0  0  6  0  0
   -0.1515   -2.8709   -2.1666 N   0  0  0  0  0  0  0  0  0 11  0  0
   -1.1791   -3.2390   -1.3667 C   0  0  0  0  0  0  0  0  0 12  0  0
   -1.2682   -3.0424   -0.1716 O   0  0  0  0  0  0  0  0  0 13  0  0
   -2.2872   -3.9619   -2.1235 C   0  0  0  0  0  0  0  0  0 14  0  0
   -1.9009   -4.9172   -2.4875 H   0  0  0  0  0  0  0  0  0 15  0  0
   -3.1379   -4.1436   -1.4698 H   0  0  0  0  0  0  0  0  0 16  0  0
   -2.8317   -3.0734   -3.5982 S   0  0  0  0  0  0  0  0  0 17  0  0
   -4.0869   -1.9523   -2.8660 C   0  0  0  0  0  0  0  0  0 18  0  0
   -3.5378   -1.1849   -1.6716 C   0  0  0  0  0  0  0  0  0 19  0  0
   -4.1268   -1.1542   -0.6215 O   0  0  0  0  0  0  0  0  0 20  0  0
   -2.3745   -0.5377   -1.9453 N   0  0  0  0  0  0  0  0  0 21  0  0
   -1.5087    0.0626   -1.0400 C   0  0  0  0  0  0  0  0  0 22  0  0
   -1.6378   -0.0885    0.3444 C   0  0  0  0  0  0  0  0  0 23  0  0
   -2.4282   -0.7057    0.7322 H   0  0  0  0  0  0  0  0  0 47  0  0
   -0.7169    0.4967    1.1918 C   0  0  0  0  0  0  0  0  0 24  0  0
   -0.8032    0.3211    2.2545 H   0  0  0  0  0  0  0  0  0 46  0  0
    0.3151    1.2610    0.6797 C   0  0  0  0  0  0  0  0  0 25  0  0
    1.5697    2.0109    1.7111 S   0  0  1  0  0  6  0  0  0 30  0  0
    2.3926    0.9712    2.2696 O   0  0  0  0  0  0  0  0  0 31  0  0
    2.1937    3.0630    0.9622 O   0  0  0  0  0  0  0  0  0 32  0  0
    0.8678    2.7605    3.0312 N   0  0  0  0  0  0  0  0  0 33  0  0
    0.2870    1.9670    4.0885 C   0  0  0  0  0  0  0  0  0 34  0  0
    0.6220    2.3661    5.0462 H   0  0  0  0  0  0  0  0  0 35  0  0
    0.6609    0.9372    4.0095 H   0  0  0  0  0  0  0  0  0 36  0  0
   -1.2368    2.1137    3.9405 C   0  0  0  0  0  0  0  0  0 37  0  0
   -1.6709    1.1892    3.5764 H   0  0  0  0  0  0  0  0  0 38  0  0
   -1.6986    2.3504    4.8895 H   0  0  0  0  0  0  0  0  0 39  0  0
   -1.4374    3.2599    2.9316 C   0  0  0  0  0  0  0  0  0 40  0  0
   -1.7586    2.8766    1.9624 H   0  0  0  0  0  0  0  0  0 41  0  0
   -2.1620    4.0005    3.2724 H   0  0  0  0  0  0  0  0  0 42  0  0
   -0.0287    3.8549    2.7742 C   0  0  0  0  0  0  0  0  0 43  0  0
    0.1813    4.2644    1.7790 H   0  0  0  0  0  0  0  0  0 44  0  0
    0.1557    4.6273    3.5119 H   0  0  0  0  0  0  0  0  0 45  0  0
    0.4408    1.4323   -0.6822 C   0  0  0  0  0  0  0  0  0 26  0  0
    1.2525    2.0450   -1.0626 H   0  0  0  0  0  0  0  0  0 29  0  0
   -0.4657    0.8464   -1.5502 C   0  0  0  0  0  0  0  0  0 27  0  0
   -0.3624    0.9578   -2.6150 H   0  0  0  0  0  0  0  0  0 28  0  0
   -2.0273   -0.6101   -2.8875 H   0  0  0  0  0  0  0  0  0 48  0  0
   -4.3955   -1.2864   -3.6665 H   0  0  0  0  0  0  0  0  0 49  0  0
   -4.9260   -2.5651   -2.5476 H   0  0  0  0  0  0  0  0  0 50  0  0
   -0.2927   -3.0526   -3.1536 H   0  0  0  0  0  0  0  0  0 51  0  0
    1.3904   -1.8944   -0.5268 C   0  0  0  0  0  0  0  0  0  7  0  0
    0.8234   -2.3023    0.2910 H   0  0  0  0  0  0  0  0  0 10  0  0
    2.5109   -1.1359   -0.2646 C   0  0  0  0  0  0  0  0  0  8  0  0
    2.7906   -0.9661    0.7653 H   0  0  0  0  0  0  0  0  0  9  0  0
    4.1410    0.8585    0.8020 H   0  0  0  0  0  0  0  0  0 54  0  0
    5.7339    1.0367    0.0272 H   0  0  0  0  0  0  0  0  0 55  0  0
  1  2  1  0
  1  3  1  0
  3  4  1  0
  4  5  4  0
  5  6  1  0
  5  7  4  0
  7  8  1  0
  7  9  4  0
  9 10  1  0
 10 11  1  0
 11 12  2  0
 11 13  1  0
 13 14  1  0
 13 15  1  0
 13 16  1  0
 16 17  1  0
 17 18  1  0
 18 19  2  0
 18 20  1  0
 20 21  1  0
 21 22  4  0
 22 23  1  0
 22 24  4  0
 24 25  1  0
 24 26  4  0
 27 26  1  6
 27 28  2  0
 27 29  2  0
 27 30  1  0
 30 31  1  0
 31 32  1  0
 31 33  1  0
 31 34  1  0
 34 35  1  0
 34 36  1  0
 34 37  1  0
 37 38  1  0
 37 39  1  0
 37 40  1  0
 40 41  1  0
 40 42  1  0
 26 43  4  0
 43 44  1  0
 43 45  4  0
 45 46  1  0
 20 47  1  0
 17 48  1  0
 17 49  1  0
 10 50  1  0
  9 51  4  0
 51 52  1  0
 51 53  4  0
 53 54  1  0
  1 55  1  0
  1 56  1  0
 53  4  4  0
 45 21  4  0
 40 30  1  0
M  END
>  <sample_id>  (391)
train::COc1ccc(NC(=O)CSCC(=O)Nc2ccc(S(=O)(=O)N3CCCC3)cc2)cc1__gen0000

>  <partition>  (391)
BAT_EXTERNAL_CONFIRM

>  <method>  (391)
BA_seed193

>  <candidate>  (391)
primary

$$$$
train::COc1ccc(NC(=O)CSCC(=O)Nc2ccc(S(=O)(=O)N3CCCC3)cc2)cc1__gen0001
     RDKit          3D

 56 58  0  0  0  0  0  0  0  0999 V2000
    0.0232   -0.2045   -4.0456 C   0  0  0  0  0  0  0  0  0  0  0  0
   -0.5370    0.5029   -4.6759 H   0  0  0  0  0  0  0  0  0  1  0  0
    0.9113    0.4586   -3.1952 O   0  0  0  0  0  0  0  0  0  2  0  0
    0.4132    1.3130   -2.2475 C   0  0  0  0  0  0  0  0  0  3  0  0
   -0.9464    1.5282   -2.0212 C   0  0  0  0  0  0  0  0  0  4  0  0
   -1.6939    1.0211   -2.6076 H   0  0  0  0  0  0  0  0  0 53  0  0
   -1.3419    2.3869   -1.0251 C   0  0  0  0  0  0  0  0  0  5  0  0
   -2.3848    2.5577   -0.8602 H   0  0  0  0  0  0  0  0  0 52  0  0
   -0.4042    3.0533   -0.2492 C   0  0  0  0  0  0  0  0  0  6  0  0
   -0.7925    3.9632    0.7603 N   0  0  0  0  0  0  0  0  0 11  0  0
   -1.8142    3.7952    1.6082 C   0  0  0  0  0  0  0  0  0 12  0  0
   -2.5792    2.8388    1.6385 O   0  0  0  0  0  0  0  0  0 13  0  0
   -1.9263    4.9131    2.6116 C   0  0  0  0  0  0  0  0  0 14  0  0
   -2.7473    4.7504    3.3031 H   0  0  0  0  0  0  0  0  0 15  0  0
   -2.0649    5.8635    2.1212 H   0  0  0  0  0  0  0  0  0 16  0  0
   -0.3789    5.0724    3.5552 S   0  0  0  0  0  0  0  0  0 17  0  0
   -0.3200    3.4540    4.4139 C   0  0  0  0  0  0  0  0  0 18  0  0
    0.4865    2.4367    3.6097 C   0  0  0  0  0  0  0  0  0 19  0  0
    1.7027    2.3954    3.7201 O   0  0  0  0  0  0  0  0  0 20  0  0
   -0.2463    1.6217    2.8207 N   0  0  0  0  0  0  0  0  0 21  0  0
    0.2016    0.6781    1.9102 C   0  0  0  0  0  0  0  0  0 22  0  0
    1.5499    0.3720    1.7063 C   0  0  0  0  0  0  0  0  0 23  0  0
    2.2935    0.8938    2.2869 H   0  0  0  0  0  0  0  0  0 47  0  0
    1.9079   -0.5876    0.7905 C   0  0  0  0  0  0  0  0  0 24  0  0
    2.9440   -0.8155    0.6291 H   0  0  0  0  0  0  0  0  0 46  0  0
    0.9430   -1.2778    0.0628 C   0  0  0  0  0  0  0  0  0 25  0  0
    1.4581   -2.5523   -1.0531 S   0  0  1  0  0  6  0  0  0 30  0  0
    1.7331   -2.0207   -2.3469 O   0  0  0  0  0  0  0  0  0 31  0  0
    2.5310   -3.2775   -0.4187 O   0  0  0  0  0  0  0  0  0 32  0  0
    0.0547   -3.4713   -1.1672 N   0  0  0  0  0  0  0  0  0 33  0  0
   -0.1027   -4.2049   -2.4205 C   0  0  0  0  0  0  0  0  0 34  0  0
   -1.1311   -4.0609   -2.7946 H   0  0  0  0  0  0  0  0  0 35  0  0
    0.6036   -3.7932   -3.1619 H   0  0  0  0  0  0  0  0  0 36  0  0
    0.1847   -5.6985   -2.1075 C   0  0  0  0  0  0  0  0  0 37  0  0
    0.9944   -6.0811   -2.7257 H   0  0  0  0  0  0  0  0  0 38  0  0
   -0.7228   -6.2803   -2.3136 H   0  0  0  0  0  0  0  0  0 39  0  0
    0.5426   -5.6992   -0.6298 C   0  0  0  0  0  0  0  0  0 40  0  0
    0.1908   -6.6279   -0.1219 H   0  0  0  0  0  0  0  0  0 41  0  0
    1.6144   -5.6036   -0.4771 H   0  0  0  0  0  0  0  0  0 42  0  0
   -0.1022   -4.4279   -0.0841 C   0  0  0  0  0  0  0  0  0 43  0  0
    0.3806   -4.0400    0.8017 H   0  0  0  0  0  0  0  0  0 44  0  0
   -1.1685   -4.5729    0.0917 H   0  0  0  0  0  0  0  0  0 45  0  0
   -0.3983   -0.9567    0.2332 C   0  0  0  0  0  0  0  0  0 26  0  0
   -1.1260   -1.5052   -0.3312 H   0  0  0  0  0  0  0  0  0 29  0  0
   -0.7696   -0.0001    1.1508 C   0  0  0  0  0  0  0  0  0 27  0  0
   -1.8093    0.2569    1.2763 H   0  0  0  0  0  0  0  0  0 28  0  0
   -1.2577    1.7562    2.7833 H   0  0  0  0  0  0  0  0  0 48  0  0
   -1.3473    3.1300    4.5986 H   0  0  0  0  0  0  0  0  0 49  0  0
    0.2033    3.6401    5.3519 H   0  0  0  0  0  0  0  0  0 50  0  0
   -0.1241    4.6889    0.9783 H   0  0  0  0  0  0  0  0  0 51  0  0
    0.9476    2.8721   -0.5069 C   0  0  0  0  0  0  0  0  0  7  0  0
    1.6853    3.4055    0.0793 H   0  0  0  0  0  0  0  0  0 10  0  0
    1.3590    1.9928   -1.4802 C   0  0  0  0  0  0  0  0  0  8  0  0
    2.4043    1.8254   -1.6872 H   0  0  0  0  0  0  0  0  0  9  0  0
    0.6533   -0.8461   -4.6599 H   0  0  0  0  0  0  0  0  0 54  0  0
   -0.6802   -0.8322   -3.4778 H   0  0  0  0  0  0  0  0  0 55  0  0
  1  2  1  0
  1  3  1  0
  3  4  1  0
  4  5  4  0
  5  6  1  0
  5  7  4  0
  7  8  1  0
  7  9  4  0
  9 10  1  0
 10 11  1  0
 11 12  2  0
 11 13  1  0
 13 14  1  0
 13 15  1  0
 13 16  1  0
 16 17  1  0
 17 18  1  0
 18 19  2  0
 18 20  1  0
 20 21  1  0
 21 22  4  0
 22 23  1  0
 22 24  4  0
 24 25  1  0
 24 26  4  0
 27 26  1  1
 27 28  2  0
 27 29  2  0
 27 30  1  0
 30 31  1  0
 31 32  1  0
 31 33  1  0
 31 34  1  0
 34 35  1  0
 34 36  1  0
 34 37  1  0
 37 38  1  0
 37 39  1  0
 37 40  1  0
 40 41  1  0
 40 42  1  0
 26 43  4  0
 43 44  1  0
 43 45  4  0
 45 46  1  0
 20 47  1  0
 17 48  1  0
 17 49  1  0
 10 50  1  0
  9 51  4  0
 51 52  1  0
 51 53  4  0
 53 54  1  0
  1 55  1  0
  1 56  1  0
 53  4  4  0
 45 21  4  0
 40 30  1  0
M  END
>  <sample_id>  (392)
train::COc1ccc(NC(=O)CSCC(=O)Nc2ccc(S(=O)(=O)N3CCCC3)cc2)cc1__gen0001

>  <partition>  (392)
BAT_EXTERNAL_CONFIRM

>  <method>  (392)
BA_seed193

>  <candidate>  (392)
primary

$$$$
train::COc1ccc(NC(=O)CSCC(=O)Nc2ccc(S(=O)(=O)N3CCCC3)cc2)cc1__gen0002
     RDKit          3D

 56 58  0  0  0  0  0  0  0  0999 V2000
    3.9899   -1.8330   -0.1860 C   0  0  0  0  0  0  0  0  0  0  0  0
    4.5717   -2.6718    0.1829 H   0  0  0  0  0  0  0  0  0  1  0  0
    3.1617   -2.3736   -1.1979 O   0  0  0  0  0  0  0  0  0  2  0  0
    2.2841   -1.5482   -1.8380 C   0  0  0  0  0  0  0  0  0  3  0  0
    1.4926   -2.1415   -2.8173 C   0  0  0  0  0  0  0  0  0  4  0  0
    1.6035   -3.1971   -2.9942 H   0  0  0  0  0  0  0  0  0 53  0  0
    0.5902   -1.3978   -3.5390 C   0  0  0  0  0  0  0  0  0  5  0  0
   -0.0316   -1.8736   -4.2773 H   0  0  0  0  0  0  0  0  0 52  0  0
    0.4471   -0.0337   -3.3003 C   0  0  0  0  0  0  0  0  0  6  0  0
   -0.5001    0.6714   -4.0720 N   0  0  0  0  0  0  0  0  0 11  0  0
   -1.0261    1.9004   -3.8579 C   0  0  0  0  0  0  0  0  0 12  0  0
   -0.7127    2.6845   -2.9854 O   0  0  0  0  0  0  0  0  0 13  0  0
   -2.1042    2.2403   -4.8819 C   0  0  0  0  0  0  0  0  0 14  0  0
   -2.6543    3.1140   -4.5696 H   0  0  0  0  0  0  0  0  0 15  0  0
   -1.6491    2.4182   -5.8539 H   0  0  0  0  0  0  0  0  0 16  0  0
   -3.2675    0.8666   -5.1313 S   0  0  0  0  0  0  0  0  0 17  0  0
   -4.0432    0.7310   -3.4861 C   0  0  0  0  0  0  0  0  0 18  0  0
   -3.0869    0.0554   -2.5009 C   0  0  0  0  0  0  0  0  0 19  0  0
   -2.8678   -1.1364   -2.5629 O   0  0  0  0  0  0  0  0  0 20  0  0
   -2.5619    0.9075   -1.5836 N   0  0  0  0  0  0  0  0  0 21  0  0
   -1.6303    0.6468   -0.5839 C   0  0  0  0  0  0  0  0  0 22  0  0
   -1.1913    1.7395    0.1552 C   0  0  0  0  0  0  0  0  0 23  0  0
   -1.5420    2.7372   -0.0782 H   0  0  0  0  0  0  0  0  0 47  0  0
   -0.2800    1.5603    1.1792 C   0  0  0  0  0  0  0  0  0 24  0  0
    0.0777    2.3873    1.7694 H   0  0  0  0  0  0  0  0  0 46  0  0
    0.1934    0.2881    1.4560 C   0  0  0  0  0  0  0  0  0 25  0  0
    1.3183    0.0276    2.8182 S   0  0  1  0  0  6  0  0  0 30  0  0
    2.3730   -0.8597    2.4182 O   0  0  0  0  0  0  0  0  0 31  0  0
    1.6995    1.3079    3.3508 O   0  0  0  0  0  0  0  0  0 32  0  0
    0.3047   -0.8547    3.8322 N   0  0  0  0  0  0  0  0  0 33  0  0
    1.0136   -1.6104    4.8399 C   0  0  0  0  0  0  0  0  0 34  0  0
    1.9203   -2.0393    4.3978 H   0  0  0  0  0  0  0  0  0 35  0  0
    0.3593   -2.4231    5.1706 H   0  0  0  0  0  0  0  0  0 36  0  0
    1.2931   -0.6130    5.9765 C   0  0  0  0  0  0  0  0  0 37  0  0
    1.3185   -1.1133    6.9493 H   0  0  0  0  0  0  0  0  0 38  0  0
    2.2515   -0.1227    5.8176 H   0  0  0  0  0  0  0  0  0 39  0  0
    0.1468    0.4058    5.8618 C   0  0  0  0  0  0  0  0  0 40  0  0
   -0.5360    0.3680    6.7117 H   0  0  0  0  0  0  0  0  0 41  0  0
    0.5698    1.4089    5.7880 H   0  0  0  0  0  0  0  0  0 42  0  0
   -0.5968    0.0168    4.5661 C   0  0  0  0  0  0  0  0  0 43  0  0
   -1.5075   -0.5557    4.7694 H   0  0  0  0  0  0  0  0  0 44  0  0
   -0.8427    0.8886    3.9495 H   0  0  0  0  0  0  0  0  0 45  0  0
   -0.2259   -0.8016    0.7075 C   0  0  0  0  0  0  0  0  0 26  0  0
    0.1858   -1.7722    0.9434 H   0  0  0  0  0  0  0  0  0 29  0  0
   -1.1510   -0.6304   -0.3077 C   0  0  0  0  0  0  0  0  0 27  0  0
   -1.4700   -1.4637   -0.9040 H   0  0  0  0  0  0  0  0  0 28  0  0
   -2.7600    1.8942   -1.6875 H   0  0  0  0  0  0  0  0  0 48  0  0
   -4.3378    1.7354   -3.1639 H   0  0  0  0  0  0  0  0  0 49  0  0
   -4.9147    0.1026   -3.6452 H   0  0  0  0  0  0  0  0  0 50  0  0
   -0.9266    0.1151   -4.8076 H   0  0  0  0  0  0  0  0  0 51  0  0
    1.2280    0.5722   -2.3142 C   0  0  0  0  0  0  0  0  0  7  0  0
    1.1185    1.6180   -2.1038 H   0  0  0  0  0  0  0  0  0 10  0  0
    2.1269   -0.1746   -1.5807 C   0  0  0  0  0  0  0  0  0  8  0  0
    2.7236    0.3144   -0.8340 H   0  0  0  0  0  0  0  0  0  9  0  0
    4.6576   -1.0661   -0.5939 H   0  0  0  0  0  0  0  0  0 54  0  0
    3.3970   -1.4168    0.6292 H   0  0  0  0  0  0  0  0  0 55  0  0
  1  2  1  0
  1  3  1  0
  3  4  1  0
  4  5  4  0
  5  6  1  0
  5  7  4  0
  7  8  1  0
  7  9  4  0
  9 10  1  0
 10 11  1  0
 11 12  2  0
 11 13  1  0
 13 14  1  0
 13 15  1  0
 13 16  1  0
 16 17  1  0
 17 18  1  0
 18 19  2  0
 18 20  1  0
 20 21  1  0
 21 22  4  0
 22 23  1  0
 22 24  4  0
 24 25  1  0
 24 26  4  0
 27 26  1  6
 27 28  2  0
 27 29  2  0
 27 30  1  0
 30 31  1  0
 31 32  1  0
 31 33  1  0
 31 34  1  0
 34 35  1  0
 34 36  1  0
 34 37  1  0
 37 38  1  0
 37 39  1  0
 37 40  1  0
 40 41  1  0
 40 42  1  0
 26 43  4  0
 43 44  1  0
 43 45  4  0
 45 46  1  0
 20 47  1  0
 17 48  1  0
 17 49  1  0
 10 50  1  0
  9 51  4  0
 51 52  1  0
 51 53  4  0
 53 54  1  0
  1 55  1  0
  1 56  1  0
 53  4  4  0
 45 21  4  0
 40 30  1  0
M  END
>  <sample_id>  (393)
train::COc1ccc(NC(=O)CSCC(=O)Nc2ccc(S(=O)(=O)N3CCCC3)cc2)cc1__gen0002

>  <partition>  (393)
BAT_EXTERNAL_CONFIRM

>  <method>  (393)
BA_seed193

>  <candidate>  (393)
primary

$$$$
train::Cc1ccccc1CC(=O)N1CCCC(CCC(=O)N2CCN(c3ccccn3)CC2)C1__gen0000
     RDKit          3D

 66 69  0  0  0  0  0  0  0  0999 V2000
    0.8318   -2.9847   -2.4159 C   0  0  0  0  0  0  0  0  0  0  0  0
   -0.1792   -3.0290   -1.2972 C   0  0  0  0  0  0  0  0  0  1  0  0
   -0.2837   -4.1842   -0.5358 C   0  0  0  0  0  0  0  0  0  2  0  0
    0.3972   -5.0005   -0.7534 H   0  0  0  0  0  0  0  0  0 62  0  0
   -1.1838   -4.2911    0.4898 C   0  0  0  0  0  0  0  0  0  3  0  0
   -1.2392   -5.1971    1.0784 H   0  0  0  0  0  0  0  0  0 61  0  0
   -2.0544   -3.2411    0.7386 C   0  0  0  0  0  0  0  0  0  4  0  0
   -2.8036   -3.3138    1.5155 H   0  0  0  0  0  0  0  0  0 60  0  0
   -1.9960   -2.0998   -0.0403 C   0  0  0  0  0  0  0  0  0  5  0  0
   -2.6990   -1.2843    0.1478 H   0  0  0  0  0  0  0  0  0 59  0  0
   -1.0604   -1.9660   -1.0497 C   0  0  0  0  0  0  0  0  0  6  0  0
   -0.9305   -0.6782   -1.8412 C   0  0  0  0  0  0  0  0  0  7  0  0
   -2.2797   -0.0063   -2.1118 C   0  0  0  0  0  0  0  0  0  8  0  0
   -2.8905   -0.2817   -3.1388 O   0  0  0  0  0  0  0  0  0  9  0  0
   -2.7757    0.8496   -1.1829 N   0  0  0  0  0  0  0  0  0 10  0  0
   -2.1874    1.2807    0.0623 C   0  0  0  0  0  0  0  0  0 11  0  0
   -2.7038    0.8188    0.8965 H   0  0  0  0  0  0  0  0  0 12  0  0
   -1.1331    0.9871    0.1262 H   0  0  0  0  0  0  0  0  0 56  0  0
   -2.2736    2.8017    0.2782 C   0  0  1  0  0  0  0  0  0 13  0  0
   -1.9761    2.9901    1.3212 H   0  0  0  0  0  0  0  0  0 23  0  0
   -1.3763    3.6503   -0.6388 C   0  0  0  0  0  0  0  0  0 24  0  0
    0.0767    3.2214   -0.7565 C   0  0  0  0  0  0  0  0  0 25  0  0
    0.8060    3.0882    0.5712 C   0  0  0  0  0  0  0  0  0 26  0  0
    0.7078    3.9425    1.4357 O   0  0  0  0  0  0  0  0  0 27  0  0
    1.6319    2.0150    0.7471 N   0  0  0  0  0  0  0  0  0 28  0  0
    1.5306    0.7732    0.0571 C   0  0  0  0  0  0  0  0  0 29  0  0
    2.5029    0.5867   -0.3666 H   0  0  0  0  0  0  0  0  0 30  0  0
    0.8254    0.8161   -0.7468 H   0  0  0  0  0  0  0  0  0 51  0  0
    1.1270   -0.3125    1.0894 C   0  0  0  0  0  0  0  0  0 31  0  0
    0.2494   -0.0550    1.6252 H   0  0  0  0  0  0  0  0  0 49  0  0
    1.0385   -1.2686    0.6038 H   0  0  0  0  0  0  0  0  0 50  0  0
    2.1952   -0.4288    2.0331 N   0  0  0  0  0  0  0  0  0 32  0  0
    3.1659   -1.3378    1.6719 C   0  0  0  0  0  0  0  0  0 33  0  0
    2.6615   -2.5561    1.4222 N   0  0  0  0  0  0  0  0  0 34  0  0
    3.4410   -3.5046    0.9739 C   0  0  0  0  0  0  0  0  0 35  0  0
    2.9412   -4.4428    0.7777 H   0  0  0  0  0  0  0  0  0 42  0  0
    4.7767   -3.3329    0.7273 C   0  0  0  0  0  0  0  0  0 36  0  0
    5.3730   -4.1274    0.3007 H   0  0  0  0  0  0  0  0  0 41  0  0
    5.3280   -2.0970    1.0248 C   0  0  0  0  0  0  0  0  0 37  0  0
    6.3949   -1.8998    0.8705 H   0  0  0  0  0  0  0  0  0 40  0  0
    4.5507   -1.0930    1.5578 C   0  0  0  0  0  0  0  0  0 38  0  0
    4.9728   -0.1384    1.8115 H   0  0  0  0  0  0  0  0  0 39  0  0
    2.2566    0.8017    2.7737 C   0  0  0  0  0  0  0  0  0 43  0  0
    3.0053    0.7348    3.5306 H   0  0  0  0  0  0  0  0  0 44  0  0
    1.2790    0.9510    3.2280 H   0  0  0  0  0  0  0  0  0 48  0  0
    2.5895    1.9833    1.8402 C   0  0  0  0  0  0  0  0  0 45  0  0
    2.5079    2.9167    2.3790 H   0  0  0  0  0  0  0  0  0 46  0  0
    3.5894    1.8098    1.4424 H   0  0  0  0  0  0  0  0  0 47  0  0
    0.6070    4.0152   -1.3027 H   0  0  0  0  0  0  0  0  0 52  0  0
    0.1326    2.2989   -1.3483 H   0  0  0  0  0  0  0  0  0 53  0  0
   -1.3876    4.6690   -0.2516 H   0  0  0  0  0  0  0  0  0 54  0  0
   -1.8190    3.6579   -1.6353 H   0  0  0  0  0  0  0  0  0 55  0  0
   -3.7281    3.2338    0.1275 C   0  0  0  0  0  0  0  0  0 14  0  0
   -4.3133    2.7735    0.9354 H   0  0  0  0  0  0  0  0  0 21  0  0
   -3.8180    4.3169    0.2234 H   0  0  0  0  0  0  0  0  0 22  0  0
   -4.3037    2.7691   -1.2181 C   0  0  0  0  0  0  0  0  0 15  0  0
   -3.7686    3.2425   -2.0317 H   0  0  0  0  0  0  0  0  0 16  0  0
   -5.3642    3.0564   -1.2792 H   0  0  0  0  0  0  0  0  0 20  0  0
   -4.1714    1.2516   -1.3445 C   0  0  0  0  0  0  0  0  0 17  0  0
   -4.7696    0.7641   -0.5614 H   0  0  0  0  0  0  0  0  0 18  0  0
   -4.4968    0.9075   -2.3178 H   0  0  0  0  0  0  0  0  0 19  0  0
   -0.4948   -0.9112   -2.8041 H   0  0  0  0  0  0  0  0  0 57  0  0
   -0.2769    0.0222   -1.3280 H   0  0  0  0  0  0  0  0  0 58  0  0
    0.3342   -2.8612   -3.3853 H   0  0  0  0  0  0  0  0  0 63  0  0
    1.5252   -2.1577   -2.2913 H   0  0  0  0  0  0  0  0  0 64  0  0
    1.3853   -3.9153   -2.4608 H   0  0  0  0  0  0  0  0  0 65  0  0
  1  2  1  0
  2  3  4  0
  3  4  1  0
  3  5  4  0
  5  6  1  0
  5  7  4  0
  7  8  1  0
  7  9  4  0
  9 10  1  0
  9 11  4  0
 11 12  1  0
 12 13  1  0
 13 14  2  0
 13 15  1  0
 15 16  1  0
 16 17  1  0
 16 18  1  0
 16 19  1  0
 19 20  1  1
 19 21  1  0
 21 22  1  0
 22 23  1  0
 23 24  2  0
 23 25  1  0
 25 26  1  0
 26 27  1  0
 26 28  1  0
 26 29  1  0
 29 30  1  0
 29 31  1  0
 29 32  1  0
 32 33  1  0
 33 34  4  0
 34 35  4  0
 35 36  1  0
 35 37  4  0
 37 38  1  0
 37 39  4  0
 39 40  1  0
 39 41  4  0
 41 42  1  0
 32 43  1  0
 43 44  1  0
 43 45  1  0
 43 46  1  0
 46 47  1  0
 46 48  1  0
 22 49  1  0
 22 50  1  0
 21 51  1  0
 21 52  1  0
 19 53  1  0
 53 54  1  0
 53 55  1  0
 53 56  1  0
 56 57  1  0
 56 58  1  0
 56 59  1  0
 59 60  1  0
 59 61  1  0
 12 62  1  0
 12 63  1  0
  1 64  1  0
  1 65  1  0
  1 66  1  0
 11  2  4  0
 59 15  1  0
 46 25  1  0
 41 33  4  0
M  END
>  <sample_id>  (394)
train::Cc1ccccc1CC(=O)N1CCCC(CCC(=O)N2CCN(c3ccccn3)CC2)C1__gen0000

>  <partition>  (394)
BAT_EXTERNAL_CONFIRM

>  <method>  (394)
BA_seed193

>  <candidate>  (394)
primary

$$$$
train::Cc1ccccc1CC(=O)N1CCCC(CCC(=O)N2CCN(c3ccccn3)CC2)C1__gen0001
     RDKit          3D

 66 69  0  0  0  0  0  0  0  0999 V2000
    2.1794    1.3727    3.6166 C   0  0  0  0  0  0  0  0  0  0  0  0
    2.4478    0.8198    2.2491 C   0  0  0  0  0  0  0  0  0  1  0  0
    2.1827   -0.5139    1.9679 C   0  0  0  0  0  0  0  0  0  2  0  0
    1.7880   -1.1364    2.7526 H   0  0  0  0  0  0  0  0  0 62  0  0
    2.4733   -1.0646    0.7379 C   0  0  0  0  0  0  0  0  0  3  0  0
    2.2432   -2.0996    0.5372 H   0  0  0  0  0  0  0  0  0 61  0  0
    3.0130   -0.2756   -0.2586 C   0  0  0  0  0  0  0  0  0  4  0  0
    3.2348   -0.6830   -1.2320 H   0  0  0  0  0  0  0  0  0 60  0  0
    3.2630    1.0650    0.0000 C   0  0  0  0  0  0  0  0  0  5  0  0
    3.7255    1.6796   -0.7567 H   0  0  0  0  0  0  0  0  0 59  0  0
    2.9762    1.6352    1.2400 C   0  0  0  0  0  0  0  0  0  6  0  0
    3.2784    3.0970    1.4822 C   0  0  0  0  0  0  0  0  0  7  0  0
    3.2045    3.9227    0.2084 C   0  0  0  0  0  0  0  0  0  8  0  0
    4.2106    4.3957   -0.2761 O   0  0  0  0  0  0  0  0  0  9  0  0
    1.9789    4.1212   -0.3501 N   0  0  0  0  0  0  0  0  0 10  0  0
    0.7143    3.5758    0.0877 C   0  0  0  0  0  0  0  0  0 11  0  0
    0.7711    3.2204    1.1108 H   0  0  0  0  0  0  0  0  0 12  0  0
   -0.0412    4.3706    0.0247 H   0  0  0  0  0  0  0  0  0 56  0  0
    0.2867    2.4278   -0.8536 C   0  0  1  0  0  0  0  0  0 13  0  0
    1.0387    1.6386   -0.8063 H   0  0  0  0  0  0  0  0  0 23  0  0
   -1.0653    1.8318   -0.4647 C   0  0  0  0  0  0  0  0  0 24  0  0
   -1.1007    1.2466    0.9394 C   0  0  0  0  0  0  0  0  0 25  0  0
   -2.3454    0.4002    1.1193 C   0  0  0  0  0  0  0  0  0 26  0  0
   -3.4050    0.8685    1.4867 O   0  0  0  0  0  0  0  0  0 27  0  0
   -2.2283   -0.9274    0.8292 N   0  0  0  0  0  0  0  0  0 28  0  0
   -1.0890   -1.6156    0.2500 C   0  0  0  0  0  0  0  0  0 29  0  0
   -0.8289   -2.4532    0.8937 H   0  0  0  0  0  0  0  0  0 30  0  0
   -0.2439   -0.9295    0.1566 H   0  0  0  0  0  0  0  0  0 51  0  0
   -1.4694   -2.1510   -1.1401 C   0  0  0  0  0  0  0  0  0 31  0  0
   -0.6405   -2.7227   -1.5565 H   0  0  0  0  0  0  0  0  0 49  0  0
   -1.7113   -1.3168   -1.8052 H   0  0  0  0  0  0  0  0  0 50  0  0
   -2.6222   -3.0132   -1.0477 N   0  0  0  0  0  0  0  0  0 32  0  0
   -2.4025   -4.3607   -0.8935 C   0  0  0  0  0  0  0  0  0 33  0  0
   -1.1445   -4.7738   -0.9811 N   0  0  0  0  0  0  0  0  0 34  0  0
   -0.8802   -6.0650   -0.9435 C   0  0  0  0  0  0  0  0  0 35  0  0
    0.1675   -6.3291   -1.0444 H   0  0  0  0  0  0  0  0  0 42  0  0
   -1.8525   -7.0477   -0.7821 C   0  0  0  0  0  0  0  0  0 36  0  0
   -1.5782   -8.0913   -0.7305 H   0  0  0  0  0  0  0  0  0 41  0  0
   -3.1581   -6.6201   -0.6500 C   0  0  0  0  0  0  0  0  0 37  0  0
   -3.9549   -7.3542   -0.5406 H   0  0  0  0  0  0  0  0  0 40  0  0
   -3.4501   -5.2808   -0.7197 C   0  0  0  0  0  0  0  0  0 38  0  0
   -4.4719   -4.9355   -0.6639 H   0  0  0  0  0  0  0  0  0 39  0  0
   -3.7590   -2.3141   -0.4878 C   0  0  0  0  0  0  0  0  0 43  0  0
   -4.0109   -1.4682   -1.1458 H   0  0  0  0  0  0  0  0  0 44  0  0
   -4.6184   -2.9727   -0.4215 H   0  0  0  0  0  0  0  0  0 48  0  0
   -3.4028   -1.7741    0.9021 C   0  0  0  0  0  0  0  0  0 45  0  0
   -3.1992   -2.6102    1.5757 H   0  0  0  0  0  0  0  0  0 46  0  0
   -4.2176   -1.1668    1.2951 H   0  0  0  0  0  0  0  0  0 47  0  0
   -0.2185    0.6792    1.1845 H   0  0  0  0  0  0  0  0  0 52  0  0
   -1.1827    2.0675    1.6587 H   0  0  0  0  0  0  0  0  0 53  0  0
   -1.3109    1.0651   -1.1931 H   0  0  0  0  0  0  0  0  0 54  0  0
   -1.8350    2.6054   -0.5427 H   0  0  0  0  0  0  0  0  0 55  0  0
    0.2321    2.9543   -2.2977 C   0  0  0  0  0  0  0  0  0 14  0  0
   -0.5784    3.6869   -2.3777 H   0  0  0  0  0  0  0  0  0 21  0  0
    0.0080    2.1360   -3.0005 H   0  0  0  0  0  0  0  0  0 22  0  0
    1.5471    3.6223   -2.6906 C   0  0  0  0  0  0  0  0  0 15  0  0
    1.4876    4.0669   -3.6810 H   0  0  0  0  0  0  0  0  0 16  0  0
    2.3486    2.8788   -2.6997 H   0  0  0  0  0  0  0  0  0 20  0  0
    1.9159    4.7066   -1.6683 C   0  0  0  0  0  0  0  0  0 17  0  0
    2.8931    5.1443   -1.8976 H   0  0  0  0  0  0  0  0  0 18  0  0
    1.1598    5.4972   -1.6735 H   0  0  0  0  0  0  0  0  0 19  0  0
    4.3082    3.1904    1.8341 H   0  0  0  0  0  0  0  0  0 57  0  0
    2.6155    3.5311    2.2304 H   0  0  0  0  0  0  0  0  0 58  0  0
    1.4522    2.1875    3.5752 H   0  0  0  0  0  0  0  0  0 63  0  0
    3.0920    1.7568    4.0664 H   0  0  0  0  0  0  0  0  0 64  0  0
    1.7801    0.6017    4.2622 H   0  0  0  0  0  0  0  0  0 65  0  0
  1  2  1  0
  2  3  4  0
  3  4  1  0
  3  5  4  0
  5  6  1  0
  5  7  4  0
  7  8  1  0
  7  9  4  0
  9 10  1  0
  9 11  4  0
 11 12  1  0
 12 13  1  0
 13 14  2  0
 13 15  1  0
 15 16  1  0
 16 17  1  0
 16 18  1  0
 16 19  1  0
 19 20  1  6
 19 21  1  0
 21 22  1  0
 22 23  1  0
 23 24  2  0
 23 25  1  0
 25 26  1  0
 26 27  1  0
 26 28  1  0
 26 29  1  0
 29 30  1  0
 29 31  1  0
 29 32  1  0
 32 33  1  0
 33 34  4  0
 34 35  4  0
 35 36  1  0
 35 37  4  0
 37 38  1  0
 37 39  4  0
 39 40  1  0
 39 41  4  0
 41 42  1  0
 32 43  1  0
 43 44  1  0
 43 45  1  0
 43 46  1  0
 46 47  1  0
 46 48  1  0
 22 49  1  0
 22 50  1  0
 21 51  1  0
 21 52  1  0
 19 53  1  0
 53 54  1  0
 53 55  1  0
 53 56  1  0
 56 57  1  0
 56 58  1  0
 56 59  1  0
 59 60  1  0
 59 61  1  0
 12 62  1  0
 12 63  1  0
  1 64  1  0
  1 65  1  0
  1 66  1  0
 11  2  4  0
 59 15  1  0
 46 25  1  0
 41 33  4  0
M  END
>  <sample_id>  (395)
train::Cc1ccccc1CC(=O)N1CCCC(CCC(=O)N2CCN(c3ccccn3)CC2)C1__gen0001

>  <partition>  (395)
BAT_EXTERNAL_CONFIRM

>  <method>  (395)
BA_seed193

>  <candidate>  (395)
primary

$$$$
train::Cc1ccccc1CC(=O)N1CCCC(CCC(=O)N2CCN(c3ccccn3)CC2)C1__gen0002
     RDKit          3D

 66 69  0  0  0  0  0  0  0  0999 V2000
   -2.2700   -2.6551   -0.4169 C   0  0  0  0  0  0  0  0  0  0  0  0
   -1.0977   -2.3455    0.4829 C   0  0  0  0  0  0  0  0  0  1  0  0
    0.1835   -2.7235    0.1115 C   0  0  0  0  0  0  0  0  0  2  0  0
    0.3074   -3.2731   -0.8215 H   0  0  0  0  0  0  0  0  0 62  0  0
    1.2964   -2.3842    0.8533 C   0  0  0  0  0  0  0  0  0  3  0  0
    2.2756   -2.6793    0.5077 H   0  0  0  0  0  0  0  0  0 61  0  0
    1.1394   -1.6725    2.0278 C   0  0  0  0  0  0  0  0  0  4  0  0
    1.9812   -1.3928    2.6228 H   0  0  0  0  0  0  0  0  0 60  0  0
   -0.1422   -1.3242    2.4323 C   0  0  0  0  0  0  0  0  0  5  0  0
   -0.2723   -0.8047    3.3766 H   0  0  0  0  0  0  0  0  0 59  0  0
   -1.2675   -1.6425    1.6810 C   0  0  0  0  0  0  0  0  0  6  0  0
   -2.6454   -1.3278    2.1764 C   0  0  0  0  0  0  0  0  0  7  0  0
   -2.6976   -0.4895    3.4476 C   0  0  0  0  0  0  0  0  0  8  0  0
   -2.8438   -1.0346    4.5444 O   0  0  0  0  0  0  0  0  0  9  0  0
   -2.6037    0.8443    3.3348 N   0  0  0  0  0  0  0  0  0 10  0  0
   -2.3769    1.6207    2.1336 C   0  0  0  0  0  0  0  0  0 11  0  0
   -2.3601    0.9701    1.2479 H   0  0  0  0  0  0  0  0  0 12  0  0
   -3.1914    2.3337    2.0053 H   0  0  0  0  0  0  0  0  0 56  0  0
   -1.0749    2.4068    2.2147 C   0  0  1  0  0  0  0  0  0 13  0  0
   -0.2436    1.7000    2.2985 H   0  0  0  0  0  0  0  0  0 23  0  0
   -0.9071    3.3159    0.9785 C   0  0  0  0  0  0  0  0  0 24  0  0
    0.0881    2.7963   -0.0545 C   0  0  0  0  0  0  0  0  0 25  0  0
   -0.5132    1.7926   -1.0262 C   0  0  0  0  0  0  0  0  0 26  0  0
   -1.6372    1.3617   -0.9192 O   0  0  0  0  0  0  0  0  0 27  0  0
    0.3069    1.4530   -2.0947 N   0  0  0  0  0  0  0  0  0 28  0  0
    1.7408    1.5346   -2.0939 C   0  0  0  0  0  0  0  0  0 29  0  0
    2.0507    1.7517   -3.1202 H   0  0  0  0  0  0  0  0  0 30  0  0
    2.1085    2.3224   -1.4362 H   0  0  0  0  0  0  0  0  0 51  0  0
    2.3116    0.1762   -1.6586 C   0  0  0  0  0  0  0  0  0 31  0  0
    3.4006    0.1866   -1.6211 H   0  0  0  0  0  0  0  0  0 49  0  0
    1.9208   -0.0838   -0.6653 H   0  0  0  0  0  0  0  0  0 50  0  0
    1.8551   -0.8077   -2.6085 N   0  0  0  0  0  0  0  0  0 32  0  0
    2.6133   -1.5109   -3.4731 C   0  0  0  0  0  0  0  0  0 33  0  0
    1.9577   -2.3924   -4.2261 N   0  0  0  0  0  0  0  0  0 34  0  0
    2.6298   -3.1350   -5.0913 C   0  0  0  0  0  0  0  0  0 35  0  0
    2.0285   -3.8222   -5.6669 H   0  0  0  0  0  0  0  0  0 42  0  0
    3.9978   -3.0230   -5.3083 C   0  0  0  0  0  0  0  0  0 36  0  0
    4.5054   -3.6445   -6.0257 H   0  0  0  0  0  0  0  0  0 41  0  0
    4.6895   -2.1078   -4.5311 C   0  0  0  0  0  0  0  0  0 37  0  0
    5.7596   -2.0143   -4.6160 H   0  0  0  0  0  0  0  0  0 40  0  0
    4.0043   -1.3375   -3.6093 C   0  0  0  0  0  0  0  0  0 38  0  0
    4.5473   -0.6277   -3.0168 H   0  0  0  0  0  0  0  0  0 39  0  0
    0.4036   -0.8797   -2.6811 C   0  0  0  0  0  0  0  0  0 43  0  0
   -0.0384   -1.1863   -1.7152 H   0  0  0  0  0  0  0  0  0 44  0  0
    0.1321   -1.5994   -3.4307 H   0  0  0  0  0  0  0  0  0 48  0  0
   -0.1867    0.4822   -3.0145 C   0  0  0  0  0  0  0  0  0 45  0  0
    0.1182    0.7812   -4.0225 H   0  0  0  0  0  0  0  0  0 46  0  0
   -1.2770    0.4720   -2.9642 H   0  0  0  0  0  0  0  0  0 47  0  0
    0.9439    2.3371    0.4418 H   0  0  0  0  0  0  0  0  0 52  0  0
    0.4425    3.6336   -0.6796 H   0  0  0  0  0  0  0  0  0 53  0  0
   -0.5440    4.2956    1.2987 H   0  0  0  0  0  0  0  0  0 54  0  0
   -1.8709    3.4452    0.4800 H   0  0  0  0  0  0  0  0  0 55  0  0
   -1.0816    3.2642    3.4885 C   0  0  0  0  0  0  0  0  0 14  0  0
   -1.8256    4.0364    3.3898 H   0  0  0  0  0  0  0  0  0 21  0  0
   -0.1100    3.7527    3.6165 H   0  0  0  0  0  0  0  0  0 22  0  0
   -1.3849    2.4201    4.7163 C   0  0  0  0  0  0  0  0  0 15  0  0
   -0.5921    1.6936    4.9040 H   0  0  0  0  0  0  0  0  0 16  0  0
   -1.4691    3.0494    5.6062 H   0  0  0  0  0  0  0  0  0 20  0  0
   -2.6971    1.6577    4.5204 C   0  0  0  0  0  0  0  0  0 17  0  0
   -2.9076    0.9897    5.3598 H   0  0  0  0  0  0  0  0  0 18  0  0
   -3.5224    2.3698    4.3881 H   0  0  0  0  0  0  0  0  0 19  0  0
   -3.1392   -2.2898    2.4280 H   0  0  0  0  0  0  0  0  0 57  0  0
   -3.2515   -0.8579    1.4008 H   0  0  0  0  0  0  0  0  0 58  0  0
   -2.9816   -3.2914    0.1004 H   0  0  0  0  0  0  0  0  0 63  0  0
   -1.9307   -3.1516   -1.3101 H   0  0  0  0  0  0  0  0  0 64  0  0
   -2.7850   -1.7348   -0.6972 H   0  0  0  0  0  0  0  0  0 65  0  0
  1  2  1  0
  2  3  4  0
  3  4  1  0
  3  5  4  0
  5  6  1  0
  5  7  4  0
  7  8  1  0
  7  9  4  0
  9 10  1  0
  9 11  4  0
 11 12  1  0
 12 13  1  0
 13 14  2  0
 13 15  1  0
 15 16  1  0
 16 17  1  0
 16 18  1  0
 16 19  1  0
 19 20  1  1
 19 21  1  0
 21 22  1  0
 22 23  1  0
 23 24  2  0
 23 25  1  0
 25 26  1  0
 26 27  1  0
 26 28  1  0
 26 29  1  0
 29 30  1  0
 29 31  1  0
 29 32  1  0
 32 33  1  0
 33 34  4  0
 34 35  4  0
 35 36  1  0
 35 37  4  0
 37 38  1  0
 37 39  4  0
 39 40  1  0
 39 41  4  0
 41 42  1  0
 32 43  1  0
 43 44  1  0
 43 45  1  0
 43 46  1  0
 46 47  1  0
 46 48  1  0
 22 49  1  0
 22 50  1  0
 21 51  1  0
 21 52  1  0
 19 53  1  0
 53 54  1  0
 53 55  1  0
 53 56  1  0
 56 57  1  0
 56 58  1  0
 56 59  1  0
 59 60  1  0
 59 61  1  0
 12 62  1  0
 12 63  1  0
  1 64  1  0
  1 65  1  0
  1 66  1  0
 11  2  4  0
 59 15  1  0
 46 25  1  0
 41 33  4  0
M  END
>  <sample_id>  (396)
train::Cc1ccccc1CC(=O)N1CCCC(CCC(=O)N2CCN(c3ccccn3)CC2)C1__gen0002

>  <partition>  (396)
BAT_EXTERNAL_CONFIRM

>  <method>  (396)
BA_seed193

>  <candidate>  (396)
primary

$$$$
train::CCN(CC)S(=O)(=O)c1ccc2nc(NC(=O)c3cccs3)sc2c1__gen0000
     RDKit          3D

 42 44  0  0  0  0  0  0  0  0999 V2000
   -5.4337   -1.3617    0.0157 C   0  0  0  0  0  0  0  0  0  0  0  0
   -5.8478   -0.5539    0.6149 H   0  0  0  0  0  0  0  0  0  1  0  0
   -5.5940   -1.1342   -1.0321 H   0  0  0  0  0  0  0  0  0  2  0  0
   -5.9540   -2.2798    0.2638 H   0  0  0  0  0  0  0  0  0  3  0  0
   -3.9398   -1.5257    0.3251 C   0  0  0  0  0  0  0  0  0  4  0  0
   -3.3813   -2.6933   -0.3148 N   0  0  0  0  0  0  0  0  0  5  0  0
   -2.1387   -3.4552    0.4864 S   0  0  1  0  0  6  0  0  0  6  0  0
   -2.4368   -3.4020    1.8811 O   0  0  0  0  0  0  0  0  0  7  0  0
   -1.9194   -4.7210   -0.1561 O   0  0  0  0  0  0  0  0  0  8  0  0
   -0.6862   -2.4347    0.1849 C   0  0  0  0  0  0  0  0  0  9  0  0
   -0.5110   -1.2835    0.9307 C   0  0  0  0  0  0  0  0  0 10  0  0
   -1.2050   -1.0338    1.7117 H   0  0  0  0  0  0  0  0  0 32  0  0
    0.5768   -0.4848    0.6380 C   0  0  0  0  0  0  0  0  0 11  0  0
    1.4991   -0.8585   -0.3715 C   0  0  0  0  0  0  0  0  0 12  0  0
    1.3064   -2.0273   -1.1038 C   0  0  0  0  0  0  0  0  0 13  0  0
    2.0093   -2.2978   -1.8725 H   0  0  0  0  0  0  0  0  0 16  0  0
    0.2106   -2.8106   -0.8129 C   0  0  0  0  0  0  0  0  0 14  0  0
    0.0202   -3.7335   -1.3400 H   0  0  0  0  0  0  0  0  0 15  0  0
    2.5292    0.0268   -0.5415 N   0  0  0  0  0  0  0  0  0 17  0  0
    2.4507    1.0064    0.2680 C   0  0  0  0  0  0  0  0  0 18  0  0
    3.3551    2.0238    0.3210 N   0  0  0  0  0  0  0  0  0 19  0  0
    3.2263    3.0677    1.1937 C   0  0  0  0  0  0  0  0  0 20  0  0
    2.2783    3.1366    1.9639 O   0  0  0  0  0  0  0  0  0 21  0  0
    4.2772    4.0758    1.1475 C   0  0  0  0  0  0  0  0  0 22  0  0
    4.3499    5.2014    1.9191 C   0  0  0  0  0  0  0  0  0 23  0  0
    3.6035    5.4382    2.6582 H   0  0  0  0  0  0  0  0  0 29  0  0
    5.4781    5.9877    1.6414 C   0  0  0  0  0  0  0  0  0 24  0  0
    5.7014    6.9105    2.1469 H   0  0  0  0  0  0  0  0  0 28  0  0
    6.2614    5.4616    0.6620 C   0  0  0  0  0  0  0  0  0 25  0  0
    7.1734    5.8566    0.2563 H   0  0  0  0  0  0  0  0  0 27  0  0
    5.6278    3.9866    0.0482 S   0  0  0  0  0  0  0  0  0 26  0  0
    4.1411    1.9633   -0.3199 H   0  0  0  0  0  0  0  0  0 30  0  0
    1.0824    1.0174    1.3812 S   0  0  0  0  0  0  0  0  0 31  0  0
   -3.3610   -2.7701   -1.7603 C   0  0  0  0  0  0  0  0  0 33  0  0
   -2.6948   -1.5743   -2.4559 C   0  0  0  0  0  0  0  0  0 34  0  0
   -3.2771   -0.6659   -2.2903 H   0  0  0  0  0  0  0  0  0 35  0  0
   -1.6867   -1.4163   -2.0932 H   0  0  0  0  0  0  0  0  0 36  0  0
   -2.6638   -1.7643   -3.5272 H   0  0  0  0  0  0  0  0  0 37  0  0
   -2.8219   -3.6912   -1.9909 H   0  0  0  0  0  0  0  0  0 38  0  0
   -4.3902   -2.8796   -2.1207 H   0  0  0  0  0  0  0  0  0 39  0  0
   -3.8124   -1.6959    1.3932 H   0  0  0  0  0  0  0  0  0 40  0  0
   -3.4031   -0.6114    0.0507 H   0  0  0  0  0  0  0  0  0 41  0  0
  1  2  1  0
  1  3  1  0
  1  4  1  0
  1  5  1  0
  5  6  1  0
  7  6  1  6
  7  8  2  0
  7  9  2  0
  7 10  1  0
 10 11  4  0
 11 12  1  0
 11 13  4  0
 13 14  4  0
 14 15  4  0
 15 16  1  0
 15 17  4  0
 17 18  1  0
 14 19  4  0
 19 20  4  0
 20 21  1  0
 21 22  1  0
 22 23  2  0
 22 24  1  0
 24 25  4  0
 25 26  1  0
 25 27  4  0
 27 28  1  0
 27 29  4  0
 29 30  1  0
 29 31  4  0
 21 32  1  0
 20 33  4  0
  6 34  1  0
 34 35  1  0
 35 36  1  0
 35 37  1  0
 35 38  1  0
 34 39  1  0
 34 40  1  0
  5 41  1  0
  5 42  1  0
 17 10  4  0
 31 24  4  0
 33 13  4  0
M  END
>  <sample_id>  (397)
train::CCN(CC)S(=O)(=O)c1ccc2nc(NC(=O)c3cccs3)sc2c1__gen0000

>  <partition>  (397)
BAT_EXTERNAL_CONFIRM

>  <method>  (397)
BA_seed193

>  <candidate>  (397)
primary

$$$$
train::CCN(CC)S(=O)(=O)c1ccc2nc(NC(=O)c3cccs3)sc2c1__gen0001
     RDKit          3D

 42 44  0  0  0  0  0  0  0  0999 V2000
    0.2091   -3.2127    2.2519 C   0  0  0  0  0  0  0  0  0  0  0  0
   -0.4220   -4.0774    2.0802 H   0  0  0  0  0  0  0  0  0  1  0  0
   -0.2590   -2.3547    1.7789 H   0  0  0  0  0  0  0  0  0  2  0  0
    0.2856   -3.0501    3.3228 H   0  0  0  0  0  0  0  0  0  3  0  0
    1.6015   -3.4349    1.6732 C   0  0  0  0  0  0  0  0  0  4  0  0
    1.5539   -3.5390    0.2226 N   0  0  0  0  0  0  0  0  0  5  0  0
    2.7500   -2.6616   -0.5596 S   0  0  1  0  0  6  0  0  0  6  0  0
    4.0326   -2.7732    0.0823 O   0  0  0  0  0  0  0  0  0  7  0  0
    2.6564   -2.9461   -1.9536 O   0  0  0  0  0  0  0  0  0  8  0  0
    2.1090   -1.0064   -0.2592 C   0  0  0  0  0  0  0  0  0  9  0  0
    0.8686   -0.7047   -0.7872 C   0  0  0  0  0  0  0  0  0 10  0  0
    0.3440   -1.4355   -1.3818 H   0  0  0  0  0  0  0  0  0 32  0  0
    0.3639    0.5629   -0.5581 C   0  0  0  0  0  0  0  0  0 11  0  0
    1.1090    1.5064    0.1904 C   0  0  0  0  0  0  0  0  0 12  0  0
    2.3536    1.1737    0.7161 C   0  0  0  0  0  0  0  0  0 13  0  0
    2.9012    1.8970    1.2917 H   0  0  0  0  0  0  0  0  0 16  0  0
    2.8464   -0.0961    0.4838 C   0  0  0  0  0  0  0  0  0 14  0  0
    3.8084   -0.4099    0.8600 H   0  0  0  0  0  0  0  0  0 15  0  0
    0.4821    2.7078    0.3378 N   0  0  0  0  0  0  0  0  0 17  0  0
   -0.6504    2.7334   -0.2424 C   0  0  0  0  0  0  0  0  0 18  0  0
   -1.4856    3.8253   -0.2525 N   0  0  0  0  0  0  0  0  0 19  0  0
   -2.6899    3.8099   -0.8922 C   0  0  0  0  0  0  0  0  0 20  0  0
   -3.1022    2.8181   -1.4631 O   0  0  0  0  0  0  0  0  0 21  0  0
   -3.4523    5.0493   -0.8259 C   0  0  0  0  0  0  0  0  0 22  0  0
   -4.6858    5.2604   -1.3844 C   0  0  0  0  0  0  0  0  0 23  0  0
   -5.1967    4.5014   -1.9391 H   0  0  0  0  0  0  0  0  0 29  0  0
   -5.1680    6.5601   -1.1635 C   0  0  0  0  0  0  0  0  0 24  0  0
   -6.1196    6.9064   -1.5322 H   0  0  0  0  0  0  0  0  0 28  0  0
   -4.3059    7.3354   -0.4490 C   0  0  0  0  0  0  0  0  0 25  0  0
   -4.4225    8.3433   -0.1170 H   0  0  0  0  0  0  0  0  0 27  0  0
   -2.8949    6.4952   -0.0040 S   0  0  0  0  0  0  0  0  0 26  0  0
   -1.1264    4.6450    0.2209 H   0  0  0  0  0  0  0  0  0 30  0  0
   -1.1645    1.2674   -1.0641 S   0  0  0  0  0  0  0  0  0 31  0  0
    1.2046   -4.8077   -0.3734 C   0  0  0  0  0  0  0  0  0 33  0  0
    2.3100   -5.8621   -0.2693 C   0  0  0  0  0  0  0  0  0 34  0  0
    3.2225   -5.4720   -0.7189 H   0  0  0  0  0  0  0  0  0 35  0  0
    2.5136   -6.1178    0.7729 H   0  0  0  0  0  0  0  0  0 36  0  0
    2.0066   -6.7639   -0.7887 H   0  0  0  0  0  0  0  0  0 37  0  0
    0.2855   -5.1641    0.0953 H   0  0  0  0  0  0  0  0  0 38  0  0
    1.0206   -4.5938   -1.4205 H   0  0  0  0  0  0  0  0  0 39  0  0
    2.2438   -2.5827    1.9075 H   0  0  0  0  0  0  0  0  0 40  0  0
    2.0630   -4.3319    2.1113 H   0  0  0  0  0  0  0  0  0 41  0  0
  1  2  1  0
  1  3  1  0
  1  4  1  0
  1  5  1  0
  5  6  1  0
  7  6  1  1
  7  8  2  0
  7  9  2  0
  7 10  1  0
 10 11  4  0
 11 12  1  0
 11 13  4  0
 13 14  4  0
 14 15  4  0
 15 16  1  0
 15 17  4  0
 17 18  1  0
 14 19  4  0
 19 20  4  0
 20 21  1  0
 21 22  1  0
 22 23  2  0
 22 24  1  0
 24 25  4  0
 25 26  1  0
 25 27  4  0
 27 28  1  0
 27 29  4  0
 29 30  1  0
 29 31  4  0
 21 32  1  0
 20 33  4  0
  6 34  1  0
 34 35  1  0
 35 36  1  0
 35 37  1  0
 35 38  1  0
 34 39  1  0
 34 40  1  0
  5 41  1  0
  5 42  1  0
 17 10  4  0
 31 24  4  0
 33 13  4  0
M  END
>  <sample_id>  (398)
train::CCN(CC)S(=O)(=O)c1ccc2nc(NC(=O)c3cccs3)sc2c1__gen0001

>  <partition>  (398)
BAT_EXTERNAL_CONFIRM

>  <method>  (398)
BA_seed193

>  <candidate>  (398)
primary

$$$$
train::CCN(CC)S(=O)(=O)c1ccc2nc(NC(=O)c3cccs3)sc2c1__gen0002
     RDKit          3D

 42 44  0  0  0  0  0  0  0  0999 V2000
   -1.3680   -1.7365   -2.7291 C   0  0  0  0  0  0  0  0  0  0  0  0
   -0.6860   -1.5415   -3.5506 H   0  0  0  0  0  0  0  0  0  1  0  0
   -1.1786   -1.0137   -1.9337 H   0  0  0  0  0  0  0  0  0  2  0  0
   -2.3889   -1.5983   -3.0682 H   0  0  0  0  0  0  0  0  0  3  0  0
   -1.1704   -3.1490   -2.2092 C   0  0  0  0  0  0  0  0  0  4  0  0
   -2.0290   -3.4162   -1.0591 N   0  0  0  0  0  0  0  0  0  5  0  0
   -1.2652   -3.5712    0.4189 S   0  0  1  0  0  6  0  0  0  6  0  0
   -2.2262   -4.0894    1.3473 O   0  0  0  0  0  0  0  0  0  7  0  0
   -0.0092   -4.2479    0.2631 O   0  0  0  0  0  0  0  0  0  8  0  0
   -0.9449   -1.8493    0.7950 C   0  0  0  0  0  0  0  0  0  9  0  0
    0.3112   -1.3366    0.5669 C   0  0  0  0  0  0  0  0  0 10  0  0
    1.1122   -1.9768    0.2391 H   0  0  0  0  0  0  0  0  0 32  0  0
    0.5044    0.0088    0.8183 C   0  0  0  0  0  0  0  0  0 11  0  0
   -0.5522    0.8247    1.2842 C   0  0  0  0  0  0  0  0  0 12  0  0
   -1.8194    0.2703    1.4970 C   0  0  0  0  0  0  0  0  0 13  0  0
   -2.6090    0.9016    1.8579 H   0  0  0  0  0  0  0  0  0 16  0  0
   -2.0015   -1.0714    1.2403 C   0  0  0  0  0  0  0  0  0 14  0  0
   -2.9519   -1.5474    1.4056 H   0  0  0  0  0  0  0  0  0 15  0  0
   -0.2134    2.1310    1.4766 N   0  0  0  0  0  0  0  0  0 17  0  0
    1.0241    2.3426    1.1968 C   0  0  0  0  0  0  0  0  0 18  0  0
    1.6150    3.5667    1.3009 N   0  0  0  0  0  0  0  0  0 19  0  0
    2.9242    3.7684    0.9756 C   0  0  0  0  0  0  0  0  0 20  0  0
    3.6363    2.8619    0.5692 O   0  0  0  0  0  0  0  0  0 21  0  0
    3.4262    5.1289    1.1494 C   0  0  0  0  0  0  0  0  0 22  0  0
    4.6997    5.5593    0.8825 C   0  0  0  0  0  0  0  0  0 23  0  0
    5.4554    4.8954    0.4982 H   0  0  0  0  0  0  0  0  0 29  0  0
    4.8945    6.9255    1.1505 C   0  0  0  0  0  0  0  0  0 24  0  0
    5.8263    7.4389    0.9899 H   0  0  0  0  0  0  0  0  0 28  0  0
    3.7686    7.5285    1.6222 C   0  0  0  0  0  0  0  0  0 25  0  0
    3.6208    8.5505    1.9006 H   0  0  0  0  0  0  0  0  0 27  0  0
    2.4443    6.4428    1.7541 S   0  0  0  0  0  0  0  0  0 26  0  0
    1.0323    4.3242    1.6445 H   0  0  0  0  0  0  0  0  0 30  0  0
    1.9638    0.9705    0.6245 S   0  0  0  0  0  0  0  0  0 31  0  0
   -3.2928   -4.0903   -1.2697 C   0  0  0  0  0  0  0  0  0 33  0  0
   -3.1184   -5.5879   -1.5311 C   0  0  0  0  0  0  0  0  0 34  0  0
   -4.0932   -6.0610   -1.6230 H   0  0  0  0  0  0  0  0  0 35  0  0
   -2.5664   -5.7689   -2.4537 H   0  0  0  0  0  0  0  0  0 36  0  0
   -2.5868   -6.0492   -0.7009 H   0  0  0  0  0  0  0  0  0 37  0  0
   -3.8048   -3.6123   -2.1079 H   0  0  0  0  0  0  0  0  0 38  0  0
   -3.8604   -3.9578   -0.3504 H   0  0  0  0  0  0  0  0  0 39  0  0
   -0.1437   -3.2983   -1.8721 H   0  0  0  0  0  0  0  0  0 40  0  0
   -1.3791   -3.8698   -3.0104 H   0  0  0  0  0  0  0  0  0 41  0  0
  1  2  1  0
  1  3  1  0
  1  4  1  0
  1  5  1  0
  5  6  1  0
  7  6  1  6
  7  8  2  0
  7  9  2  0
  7 10  1  0
 10 11  4  0
 11 12  1  0
 11 13  4  0
 13 14  4  0
 14 15  4  0
 15 16  1  0
 15 17  4  0
 17 18  1  0
 14 19  4  0
 19 20  4  0
 20 21  1  0
 21 22  1  0
 22 23  2  0
 22 24  1  0
 24 25  4  0
 25 26  1  0
 25 27  4  0
 27 28  1  0
 27 29  4  0
 29 30  1  0
 29 31  4  0
 21 32  1  0
 20 33  4  0
  6 34  1  0
 34 35  1  0
 35 36  1  0
 35 37  1  0
 35 38  1  0
 34 39  1  0
 34 40  1  0
  5 41  1  0
  5 42  1  0
 17 10  4  0
 31 24  4  0
 33 13  4  0
M  END
>  <sample_id>  (399)
train::CCN(CC)S(=O)(=O)c1ccc2nc(NC(=O)c3cccs3)sc2c1__gen0002

>  <partition>  (399)
BAT_EXTERNAL_CONFIRM

>  <method>  (399)
BA_seed193

>  <candidate>  (399)
primary

$$$$
train::O=C(Nc1ccc(S(=O)(=O)Nc2ncccn2)cc1)C1=NN(c2ccccc2)C(=O)CC1__gen0000
     RDKit          3D

 50 53  0  0  0  0  0  0  0  0999 V2000
   -3.2566   -4.2911    0.3286 O   0  0  0  0  0  0  0  0  0  0  0  0
   -2.4769   -3.3789    0.4807 C   0  0  0  0  0  0  0  0  0  1  0  0
   -2.8724   -2.1944    1.0315 N   0  0  0  0  0  0  0  0  0  2  0  0
   -2.1343   -1.0905    1.4254 C   0  0  0  0  0  0  0  0  0  3  0  0
   -2.6513    0.1893    1.1909 C   0  0  0  0  0  0  0  0  0  4  0  0
   -3.6199    0.3011    0.7398 H   0  0  0  0  0  0  0  0  0 26  0  0
   -1.9050    1.3180    1.4969 C   0  0  0  0  0  0  0  0  0  5  0  0
   -2.2844    2.3041    1.3280 H   0  0  0  0  0  0  0  0  0 25  0  0
   -0.6439    1.1604    2.0359 C   0  0  0  0  0  0  0  0  0  6  0  0
    0.3692    2.5914    2.3558 S   0  0  1  0  0  6  0  0  0 11  0  0
   -0.4401    3.7028    2.7369 O   0  0  0  0  0  0  0  0  0 12  0  0
    1.4662    2.2130    3.1986 O   0  0  0  0  0  0  0  0  0 13  0  0
    1.0963    2.8934    0.8518 N   0  0  0  0  0  0  0  0  0 14  0  0
    0.4549    3.6032   -0.1167 C   0  0  0  0  0  0  0  0  0 15  0  0
   -0.8784    3.5716   -0.0820 N   0  0  0  0  0  0  0  0  0 16  0  0
   -1.5060    4.2949   -0.9794 C   0  0  0  0  0  0  0  0  0 17  0  0
   -2.5949    4.2873   -0.9164 H   0  0  0  0  0  0  0  0  0 23  0  0
   -0.8559    4.9996   -1.9804 C   0  0  0  0  0  0  0  0  0 18  0  0
   -1.3848    5.5832   -2.7217 H   0  0  0  0  0  0  0  0  0 22  0  0
    0.5350    4.9230   -1.9414 C   0  0  0  0  0  0  0  0  0 19  0  0
    1.1435    5.4256   -2.6827 H   0  0  0  0  0  0  0  0  0 21  0  0
    1.1890    4.2366   -1.0312 N   0  0  0  0  0  0  0  0  0 20  0  0
    2.1002    2.9507    0.8525 H   0  0  0  0  0  0  0  0  0 24  0  0
   -0.1335   -0.0955    2.3260 C   0  0  0  0  0  0  0  0  0  7  0  0
    0.8402   -0.1605    2.7899 H   0  0  0  0  0  0  0  0  0 10  0  0
   -0.8910   -1.2209    2.0478 C   0  0  0  0  0  0  0  0  0  8  0  0
   -0.5211   -2.1964    2.2963 H   0  0  0  0  0  0  0  0  0  9  0  0
   -3.8825   -2.1034    1.1084 H   0  0  0  0  0  0  0  0  0 27  0  0
   -1.0722   -3.5039    0.0127 C   0  0  0  0  0  0  0  0  0 28  0  0
   -0.4159   -2.4485   -0.2561 N   0  0  0  0  0  0  0  0  0 29  0  0
    0.8698   -2.4965   -0.6520 N   0  0  0  0  0  0  0  0  0 30  0  0
    1.3546   -1.2171   -0.9955 C   0  0  0  0  0  0  0  0  0 39  0  0
    0.4923   -0.2820   -1.5580 C   0  0  0  0  0  0  0  0  0 40  0  0
   -0.5328   -0.5552   -1.7657 H   0  0  0  0  0  0  0  0  0 49  0  0
    0.9609    0.9774   -1.8909 C   0  0  0  0  0  0  0  0  0 41  0  0
    0.2781    1.6844   -2.3342 H   0  0  0  0  0  0  0  0  0 48  0  0
    2.2710    1.3397   -1.6341 C   0  0  0  0  0  0  0  0  0 42  0  0
    2.6220    2.3206   -1.8897 H   0  0  0  0  0  0  0  0  0 47  0  0
    3.1206    0.4059   -1.0614 C   0  0  0  0  0  0  0  0  0 43  0  0
    4.1443    0.6765   -0.8601 H   0  0  0  0  0  0  0  0  0 46  0  0
    2.6686   -0.8533   -0.7188 C   0  0  0  0  0  0  0  0  0 44  0  0
    3.3374   -1.5608   -0.2680 H   0  0  0  0  0  0  0  0  0 45  0  0
    1.6259   -3.6507   -0.6636 C   0  0  0  0  0  0  0  0  0 31  0  0
    2.7545   -3.6586   -1.0832 O   0  0  0  0  0  0  0  0  0 32  0  0
    0.9607   -4.8455   -0.0153 C   0  0  0  0  0  0  0  0  0 33  0  0
    1.4514   -5.7548   -0.3854 H   0  0  0  0  0  0  0  0  0 37  0  0
    1.1859   -4.7696    1.0474 H   0  0  0  0  0  0  0  0  0 38  0  0
   -0.5414   -4.8751   -0.2628 C   0  0  0  0  0  0  0  0  0 34  0  0
   -0.7474   -5.1433   -1.3021 H   0  0  0  0  0  0  0  0  0 35  0  0
   -1.0497   -5.6077    0.3669 H   0  0  0  0  0  0  0  0  0 36  0  0
  1  2  2  0
  2  3  1  0
  3  4  1  0
  4  5  4  0
  5  6  1  0
  5  7  4  0
  7  8  1  0
  7  9  4  0
  9 10  1  0
 10 11  2  0
 10 12  2  0
 10 13  1  6
 13 14  1  0
 14 15  4  0
 15 16  4  0
 16 17  1  0
 16 18  4  0
 18 19  1  0
 18 20  4  0
 20 21  1  0
 20 22  4  0
 13 23  1  0
  9 24  4  0
 24 25  1  0
 24 26  4  0
 26 27  1  0
  3 28  1  0
  2 29  1  0
 29 30  2  0
 30 31  1  0
 31 32  1  0
 32 33  4  0
 33 34  1  0
 33 35  4  0
 35 36  1  0
 35 37  4  0
 37 38  1  0
 37 39  4  0
 39 40  1  0
 39 41  4  0
 41 42  1  0
 31 43  1  0
 43 44  2  0
 43 45  1  0
 45 46  1  0
 45 47  1  0
 45 48  1  0
 48 49  1  0
 48 50  1  0
 26  4  4  0
 48 29  1  0
 22 14  4  0
 41 32  4  0
M  END
>  <sample_id>  (400)
train::O=C(Nc1ccc(S(=O)(=O)Nc2ncccn2)cc1)C1=NN(c2ccccc2)C(=O)CC1__gen0000

>  <partition>  (400)
BAT_EXTERNAL_CONFIRM

>  <method>  (400)
BA_seed193

>  <candidate>  (400)
primary

$$$$
train::O=C(Nc1ccc(S(=O)(=O)Nc2ncccn2)cc1)C1=NN(c2ccccc2)C(=O)CC1__gen0001
     RDKit          3D

 50 53  0  0  0  0  0  0  0  0999 V2000
   -2.6460    1.8136   -4.0835 O   0  0  0  0  0  0  0  0  0  0  0  0
   -1.7920    1.4923   -3.2797 C   0  0  0  0  0  0  0  0  0  1  0  0
   -0.5422    2.0438   -3.3323 N   0  0  0  0  0  0  0  0  0  2  0  0
    0.5855    1.5804   -2.6539 C   0  0  0  0  0  0  0  0  0  3  0  0
    0.9342    0.2347   -2.7559 C   0  0  0  0  0  0  0  0  0  4  0  0
    0.3753   -0.4163   -3.4075 H   0  0  0  0  0  0  0  0  0 26  0  0
    2.0075   -0.2579   -2.0389 C   0  0  0  0  0  0  0  0  0  5  0  0
    2.2968   -1.2914   -2.0664 H   0  0  0  0  0  0  0  0  0 25  0  0
    2.6905    0.5933   -1.1877 C   0  0  0  0  0  0  0  0  0  6  0  0
    3.9199   -0.0541   -0.0890 S   0  0  1  0  0  6  0  0  0 11  0  0
    4.3078   -1.3775   -0.4936 O   0  0  0  0  0  0  0  0  0 12  0  0
    4.9445    0.9030    0.1823 O   0  0  0  0  0  0  0  0  0 13  0  0
    3.0503   -0.1251    1.3762 N   0  0  0  0  0  0  0  0  0 14  0  0
    2.0345   -1.0190    1.5813 C   0  0  0  0  0  0  0  0  0 15  0  0
    1.4389   -1.4904    0.5041 N   0  0  0  0  0  0  0  0  0 16  0  0
    0.4428   -2.3436    0.7009 C   0  0  0  0  0  0  0  0  0 17  0  0
   -0.0104   -2.7650   -0.1860 H   0  0  0  0  0  0  0  0  0 23  0  0
   -0.0044   -2.6870    1.9774 C   0  0  0  0  0  0  0  0  0 18  0  0
   -0.8188   -3.3617    2.1374 H   0  0  0  0  0  0  0  0  0 22  0  0
    0.6796   -2.1051    3.0338 C   0  0  0  0  0  0  0  0  0 19  0  0
    0.4197   -2.2761    4.0651 H   0  0  0  0  0  0  0  0  0 21  0  0
    1.6853   -1.2552    2.8411 N   0  0  0  0  0  0  0  0  0 20  0  0
    3.5259    0.1829    2.2113 H   0  0  0  0  0  0  0  0  0 24  0  0
    2.3914    1.9457   -1.1036 C   0  0  0  0  0  0  0  0  0  7  0  0
    2.9744    2.5729   -0.4634 H   0  0  0  0  0  0  0  0  0 10  0  0
    1.3505    2.4446   -1.8641 C   0  0  0  0  0  0  0  0  0  8  0  0
    1.0898    3.4856   -1.7967 H   0  0  0  0  0  0  0  0  0  9  0  0
   -0.4736    2.9071   -3.8578 H   0  0  0  0  0  0  0  0  0 27  0  0
   -2.0568    0.5342   -2.1865 C   0  0  0  0  0  0  0  0  0 28  0  0
   -1.4472    0.6813   -1.0875 N   0  0  0  0  0  0  0  0  0 29  0  0
   -1.7872   -0.0518    0.0141 N   0  0  0  0  0  0  0  0  0 30  0  0
   -1.2838    0.4142    1.2522 C   0  0  0  0  0  0  0  0  0 39  0  0
   -1.9030    0.0702    2.4498 C   0  0  0  0  0  0  0  0  0 40  0  0
   -2.8042   -0.5287    2.4298 H   0  0  0  0  0  0  0  0  0 49  0  0
   -1.3642    0.4994    3.6506 C   0  0  0  0  0  0  0  0  0 41  0  0
   -1.8317    0.2212    4.5766 H   0  0  0  0  0  0  0  0  0 48  0  0
   -0.2192    1.2753    3.6632 C   0  0  0  0  0  0  0  0  0 42  0  0
    0.2203    1.5985    4.5979 H   0  0  0  0  0  0  0  0  0 47  0  0
    0.4038    1.6215    2.4735 C   0  0  0  0  0  0  0  0  0 43  0  0
    1.2903    2.2377    2.4777 H   0  0  0  0  0  0  0  0  0 46  0  0
   -0.1382    1.1969    1.2620 C   0  0  0  0  0  0  0  0  0 44  0  0
    0.3400    1.4511    0.3232 H   0  0  0  0  0  0  0  0  0 45  0  0
   -2.5163   -1.2221   -0.0701 C   0  0  0  0  0  0  0  0  0 31  0  0
   -2.7981   -1.8525    0.9135 O   0  0  0  0  0  0  0  0  0 32  0  0
   -2.8368   -1.6763   -1.4852 C   0  0  0  0  0  0  0  0  0 33  0  0
   -1.9758   -2.1952   -1.8862 H   0  0  0  0  0  0  0  0  0 37  0  0
   -3.6900   -2.3569   -1.4307 H   0  0  0  0  0  0  0  0  0 38  0  0
   -3.1447   -0.4764   -2.3739 C   0  0  0  0  0  0  0  0  0 34  0  0
   -4.1077   -0.0467   -2.0897 H   0  0  0  0  0  0  0  0  0 35  0  0
   -3.2074   -0.7694   -3.4253 H   0  0  0  0  0  0  0  0  0 36  0  0
  1  2  2  0
  2  3  1  0
  3  4  1  0
  4  5  4  0
  5  6  1  0
  5  7  4  0
  7  8  1  0
  7  9  4  0
  9 10  1  0
 10 11  2  0
 10 12  2  0
 10 13  1  1
 13 14  1  0
 14 15  4  0
 15 16  4  0
 16 17  1  0
 16 18  4  0
 18 19  1  0
 18 20  4  0
 20 21  1  0
 20 22  4  0
 13 23  1  0
  9 24  4  0
 24 25  1  0
 24 26  4  0
 26 27  1  0
  3 28  1  0
  2 29  1  0
 29 30  2  0
 30 31  1  0
 31 32  1  0
 32 33  4  0
 33 34  1  0
 33 35  4  0
 35 36  1  0
 35 37  4  0
 37 38  1  0
 37 39  4  0
 39 40  1  0
 39 41  4  0
 41 42  1  0
 31 43  1  0
 43 44  2  0
 43 45  1  0
 45 46  1  0
 45 47  1  0
 45 48  1  0
 48 49  1  0
 48 50  1  0
 26  4  4  0
 48 29  1  0
 22 14  4  0
 41 32  4  0
M  END
>  <sample_id>  (401)
train::O=C(Nc1ccc(S(=O)(=O)Nc2ncccn2)cc1)C1=NN(c2ccccc2)C(=O)CC1__gen0001

>  <partition>  (401)
BAT_EXTERNAL_CONFIRM

>  <method>  (401)
BA_seed193

>  <candidate>  (401)
primary

$$$$
train::O=C(Nc1ccc(S(=O)(=O)Nc2ncccn2)cc1)C1=NN(c2ccccc2)C(=O)CC1__gen0002
     RDKit          3D

 50 53  0  0  0  0  0  0  0  0999 V2000
    2.0122    1.5724    4.9109 O   0  0  0  0  0  0  0  0  0  0  0  0
    1.5020    1.1759    3.8801 C   0  0  0  0  0  0  0  0  0  1  0  0
    0.1656    1.3296    3.6464 N   0  0  0  0  0  0  0  0  0  2  0  0
   -0.6607    0.6242    2.7868 C   0  0  0  0  0  0  0  0  0  3  0  0
   -0.4113   -0.7118    2.4512 C   0  0  0  0  0  0  0  0  0  4  0  0
    0.4567   -1.2067    2.8476 H   0  0  0  0  0  0  0  0  0 26  0  0
   -1.2914   -1.3921    1.6329 C   0  0  0  0  0  0  0  0  0  5  0  0
   -1.1412   -2.4341    1.3886 H   0  0  0  0  0  0  0  0  0 25  0  0
   -2.4153   -0.7486    1.1563 C   0  0  0  0  0  0  0  0  0  6  0  0
   -3.6009   -1.7133    0.2003 S   0  0  1  0  0  6  0  0  0 11  0  0
   -3.8051   -2.9685    0.8604 O   0  0  0  0  0  0  0  0  0 12  0  0
   -4.7208   -0.9113   -0.1148 O   0  0  0  0  0  0  0  0  0 13  0  0
   -2.6945   -2.1394   -1.1776 N   0  0  0  0  0  0  0  0  0 14  0  0
   -2.6550   -1.3004   -2.2442 C   0  0  0  0  0  0  0  0  0 15  0  0
   -2.8106   -0.0061   -2.0022 N   0  0  0  0  0  0  0  0  0 16  0  0
   -2.8484    0.7839   -3.0407 C   0  0  0  0  0  0  0  0  0 17  0  0
   -2.9827    1.8422   -2.8431 H   0  0  0  0  0  0  0  0  0 23  0  0
   -2.6546    0.3319   -4.3424 C   0  0  0  0  0  0  0  0  0 18  0  0
   -2.6750    0.9887   -5.1976 H   0  0  0  0  0  0  0  0  0 22  0  0
   -2.4340   -1.0388   -4.4721 C   0  0  0  0  0  0  0  0  0 19  0  0
   -2.2612   -1.4935   -5.4444 H   0  0  0  0  0  0  0  0  0 21  0  0
   -2.4381   -1.8550   -3.4384 N   0  0  0  0  0  0  0  0  0 20  0  0
   -2.6663   -3.1302   -1.3923 H   0  0  0  0  0  0  0  0  0 24  0  0
   -2.6748    0.5654    1.4522 C   0  0  0  0  0  0  0  0  0  7  0  0
   -3.5703    1.0203    1.0653 H   0  0  0  0  0  0  0  0  0 10  0  0
   -1.7996    1.2616    2.2766 C   0  0  0  0  0  0  0  0  0  8  0  0
   -1.9998    2.2833    2.5490 H   0  0  0  0  0  0  0  0  0  9  0  0
   -0.2926    1.9587    4.2932 H   0  0  0  0  0  0  0  0  0 27  0  0
    2.3262    0.6548    2.7821 C   0  0  0  0  0  0  0  0  0 28  0  0
    1.9046    0.7598    1.5860 N   0  0  0  0  0  0  0  0  0 29  0  0
    2.5964    0.3417    0.5367 N   0  0  0  0  0  0  0  0  0 30  0  0
    1.8680    0.3792   -0.6871 C   0  0  0  0  0  0  0  0  0 39  0  0
    0.9249    1.3886   -0.8856 C   0  0  0  0  0  0  0  0  0 40  0  0
    0.7254    2.0879   -0.0860 H   0  0  0  0  0  0  0  0  0 49  0  0
    0.2682    1.4993   -2.0931 C   0  0  0  0  0  0  0  0  0 41  0  0
   -0.4378    2.3020   -2.2284 H   0  0  0  0  0  0  0  0  0 48  0  0
    0.5336    0.5978   -3.1087 C   0  0  0  0  0  0  0  0  0 42  0  0
    0.0490    0.6872   -4.0698 H   0  0  0  0  0  0  0  0  0 47  0  0
    1.4452   -0.4226   -2.8985 C   0  0  0  0  0  0  0  0  0 43  0  0
    1.6383   -1.1509   -3.6742 H   0  0  0  0  0  0  0  0  0 46  0  0
    2.1071   -0.5390   -1.6948 C   0  0  0  0  0  0  0  0  0 44  0  0
    2.7947   -1.3493   -1.5309 H   0  0  0  0  0  0  0  0  0 45  0  0
    3.9238   -0.0496    0.5918 C   0  0  0  0  0  0  0  0  0 31  0  0
    4.4692   -0.5695   -0.3508 O   0  0  0  0  0  0  0  0  0 32  0  0
    4.6008    0.2575    1.9079 C   0  0  0  0  0  0  0  0  0 33  0  0
    5.4906   -0.3608    1.9755 H   0  0  0  0  0  0  0  0  0 37  0  0
    4.8997    1.2985    1.8637 H   0  0  0  0  0  0  0  0  0 38  0  0
    3.6597    0.0425    3.0894 C   0  0  0  0  0  0  0  0  0 34  0  0
    3.5299   -1.0276    3.2796 H   0  0  0  0  0  0  0  0  0 35  0  0
    4.0503    0.4844    4.0075 H   0  0  0  0  0  0  0  0  0 36  0  0
  1  2  2  0
  2  3  1  0
  3  4  1  0
  4  5  4  0
  5  6  1  0
  5  7  4  0
  7  8  1  0
  7  9  4  0
  9 10  1  0
 10 11  2  0
 10 12  2  0
 10 13  1  6
 13 14  1  0
 14 15  4  0
 15 16  4  0
 16 17  1  0
 16 18  4  0
 18 19  1  0
 18 20  4  0
 20 21  1  0
 20 22  4  0
 13 23  1  0
  9 24  4  0
 24 25  1  0
 24 26  4  0
 26 27  1  0
  3 28  1  0
  2 29  1  0
 29 30  2  0
 30 31  1  0
 31 32  1  0
 32 33  4  0
 33 34  1  0
 33 35  4  0
 35 36  1  0
 35 37  4  0
 37 38  1  0
 37 39  4  0
 39 40  1  0
 39 41  4  0
 41 42  1  0
 31 43  1  0
 43 44  2  0
 43 45  1  0
 45 46  1  0
 45 47  1  0
 45 48  1  0
 48 49  1  0
 48 50  1  0
 26  4  4  0
 48 29  1  0
 22 14  4  0
 41 32  4  0
M  END
>  <sample_id>  (402)
train::O=C(Nc1ccc(S(=O)(=O)Nc2ncccn2)cc1)C1=NN(c2ccccc2)C(=O)CC1__gen0002

>  <partition>  (402)
BAT_EXTERNAL_CONFIRM

>  <method>  (402)
BA_seed193

>  <candidate>  (402)
primary

$$$$
train::Cc1cccc(C(=O)Nc2c(C#N)c(C)c(C)n2Cc2ccccc2)c1__gen0000
     RDKit          3D

 47 49  0  0  0  0  0  0  0  0999 V2000
    4.8747    2.5969   -2.8794 C   0  0  0  0  0  0  0  0  0  0  0  0
    4.0646    2.1512   -1.7015 C   0  0  0  0  0  0  0  0  0  1  0  0
    2.7341    2.5236   -1.5994 C   0  0  0  0  0  0  0  0  0  2  0  0
    2.2830    3.1690   -2.3366 H   0  0  0  0  0  0  0  0  0 43  0  0
    1.9494    2.0742   -0.5339 C   0  0  0  0  0  0  0  0  0  3  0  0
    0.5288    2.5136   -0.4636 C   0  0  0  0  0  0  0  0  0 10  0  0
    0.1652    3.6573   -0.6346 O   0  0  0  0  0  0  0  0  0 11  0  0
   -0.3766    1.5468   -0.1148 N   0  0  0  0  0  0  0  0  0 12  0  0
   -0.1839    0.1753   -0.0929 C   0  0  0  0  0  0  0  0  0 13  0  0
    0.4967   -0.6656   -0.9606 C   0  0  0  0  0  0  0  0  0 14  0  0
    1.1875   -0.2831   -2.1223 C   0  0  0  0  0  0  0  0  0 15  0  0
    1.7638    0.0029   -3.0790 N   0  0  0  0  0  0  0  0  0 16  0  0
    0.3436   -1.9912   -0.4873 C   0  0  0  0  0  0  0  0  0 17  0  0
    0.9338   -3.2011   -1.1103 C   0  0  0  0  0  0  0  0  0 38  0  0
    1.5930   -3.7220   -0.4116 H   0  0  0  0  0  0  0  0  0 39  0  0
    0.1604   -3.9093   -1.4305 H   0  0  0  0  0  0  0  0  0 40  0  0
    1.5222   -2.9113   -1.9797 H   0  0  0  0  0  0  0  0  0 41  0  0
   -0.4374   -1.9136    0.6615 C   0  0  0  0  0  0  0  0  0 18  0  0
   -0.8937   -3.0017    1.5582 C   0  0  0  0  0  0  0  0  0 34  0  0
   -0.8024   -3.9674    1.0551 H   0  0  0  0  0  0  0  0  0 35  0  0
   -0.2861   -3.0329    2.4611 H   0  0  0  0  0  0  0  0  0 36  0  0
   -1.9275   -2.8563    1.8587 H   0  0  0  0  0  0  0  0  0 37  0  0
   -0.7436   -0.6063    0.8781 N   0  0  0  0  0  0  0  0  0 19  0  0
   -1.6046   -0.1146    1.9373 C   0  0  0  0  0  0  0  0  0 20  0  0
   -3.0825   -0.2474    1.6079 C   0  0  0  0  0  0  0  0  0 21  0  0
   -3.5239   -0.8402    0.4324 C   0  0  0  0  0  0  0  0  0 22  0  0
   -2.8058   -1.2094   -0.2957 H   0  0  0  0  0  0  0  0  0 31  0  0
   -4.8740   -0.9748    0.1807 C   0  0  0  0  0  0  0  0  0 23  0  0
   -5.2042   -1.4348   -0.7411 H   0  0  0  0  0  0  0  0  0 30  0  0
   -5.7972   -0.5112    1.1032 C   0  0  0  0  0  0  0  0  0 24  0  0
   -6.8576   -0.5994    0.8937 H   0  0  0  0  0  0  0  0  0 29  0  0
   -5.3694    0.1027    2.2665 C   0  0  0  0  0  0  0  0  0 25  0  0
   -6.0874    0.4602    2.9824 H   0  0  0  0  0  0  0  0  0 28  0  0
   -4.0154    0.2114    2.5247 C   0  0  0  0  0  0  0  0  0 26  0  0
   -3.6734    0.6917    3.4353 H   0  0  0  0  0  0  0  0  0 27  0  0
   -1.4026   -0.6599    2.8661 H   0  0  0  0  0  0  0  0  0 32  0  0
   -1.3603    0.9419    2.1082 H   0  0  0  0  0  0  0  0  0 33  0  0
   -1.3291    1.8879   -0.0171 H   0  0  0  0  0  0  0  0  0 42  0  0
    2.5168    1.2867    0.4601 C   0  0  0  0  0  0  0  0  0  4  0  0
    1.9228    0.9558    1.3007 H   0  0  0  0  0  0  0  0  0  9  0  0
    3.8431    0.9229    0.3585 C   0  0  0  0  0  0  0  0  0  5  0  0
    4.2920    0.3042    1.1264 H   0  0  0  0  0  0  0  0  0  8  0  0
    4.6086    1.3333   -0.7156 C   0  0  0  0  0  0  0  0  0  6  0  0
    5.6451    1.0354   -0.7850 H   0  0  0  0  0  0  0  0  0  7  0  0
    4.6373    3.6289   -3.1377 H   0  0  0  0  0  0  0  0  0 44  0  0
    5.9387    2.5037   -2.6822 H   0  0  0  0  0  0  0  0  0 45  0  0
    4.6335    1.9764   -3.7446 H   0  0  0  0  0  0  0  0  0 46  0  0
  1  2  1  0
  2  3  4  0
  3  4  1  0
  3  5  4  0
  5  6  1  0
  6  7  2  0
  6  8  1  0
  8  9  1  0
  9 10  4  0
 10 11  1  0
 11 12  3  0
 10 13  4  0
 13 14  1  0
 14 15  1  0
 14 16  1  0
 14 17  1  0
 13 18  4  0
 18 19  1  0
 19 20  1  0
 19 21  1  0
 19 22  1  0
 18 23  4  0
 23 24  1  0
 24 25  1  0
 25 26  4  0
 26 27  1  0
 26 28  4  0
 28 29  1  0
 28 30  4  0
 30 31  1  0
 30 32  4  0
 32 33  1  0
 32 34  4  0
 34 35  1  0
 24 36  1  0
 24 37  1  0
  8 38  1  0
  5 39  4  0
 39 40  1  0
 39 41  4  0
 41 42  1  0
 41 43  4  0
 43 44  1  0
  1 45  1  0
  1 46  1  0
  1 47  1  0
 43  2  4  0
 23  9  4  0
 34 25  4  0
M  END
>  <sample_id>  (403)
train::Cc1cccc(C(=O)Nc2c(C#N)c(C)c(C)n2Cc2ccccc2)c1__gen0000

>  <partition>  (403)
BAT_EXTERNAL_CONFIRM

>  <method>  (403)
BA_seed193

>  <candidate>  (403)
primary

$$$$
train::Cc1cccc(C(=O)Nc2c(C#N)c(C)c(C)n2Cc2ccccc2)c1__gen0001
     RDKit          3D

 47 49  0  0  0  0  0  0  0  0999 V2000
   -5.1523   -0.0644    2.0829 C   0  0  0  0  0  0  0  0  0  0  0  0
   -4.2351   -0.3047    0.9170 C   0  0  0  0  0  0  0  0  0  1  0  0
   -2.9232   -0.6953    1.1071 C   0  0  0  0  0  0  0  0  0  2  0  0
   -2.5273   -0.8183    2.1082 H   0  0  0  0  0  0  0  0  0 43  0  0
   -2.0831   -0.9435    0.0365 C   0  0  0  0  0  0  0  0  0  3  0  0
   -0.6726   -1.2891    0.3633 C   0  0  0  0  0  0  0  0  0 10  0  0
   -0.3147   -1.6822    1.4450 O   0  0  0  0  0  0  0  0  0 11  0  0
    0.2449   -1.0124   -0.6473 N   0  0  0  0  0  0  0  0  0 12  0  0
    1.6110   -1.0398   -0.4098 C   0  0  0  0  0  0  0  0  0 13  0  0
    2.3724   -2.0209    0.2043 C   0  0  0  0  0  0  0  0  0 14  0  0
    1.9019   -3.2871    0.5955 C   0  0  0  0  0  0  0  0  0 15  0  0
    1.5603   -4.3418    0.8673 N   0  0  0  0  0  0  0  0  0 16  0  0
    3.6987   -1.5672    0.2497 C   0  0  0  0  0  0  0  0  0 17  0  0
    4.8643   -2.3035    0.8104 C   0  0  0  0  0  0  0  0  0 38  0  0
    5.3619   -1.7175    1.5768 H   0  0  0  0  0  0  0  0  0 39  0  0
    4.5073   -3.2284    1.2473 H   0  0  0  0  0  0  0  0  0 40  0  0
    5.5921   -2.5453    0.0423 H   0  0  0  0  0  0  0  0  0 41  0  0
    3.7057   -0.3109   -0.3265 C   0  0  0  0  0  0  0  0  0 18  0  0
    4.8498    0.6154   -0.5671 C   0  0  0  0  0  0  0  0  0 34  0  0
    4.9960    0.8047   -1.6292 H   0  0  0  0  0  0  0  0  0 35  0  0
    5.7578    0.1763   -0.1705 H   0  0  0  0  0  0  0  0  0 36  0  0
    4.6898    1.5751   -0.0716 H   0  0  0  0  0  0  0  0  0 37  0  0
    2.4210    0.0013   -0.7297 N   0  0  0  0  0  0  0  0  0 19  0  0
    1.9909    1.2230   -1.3736 C   0  0  0  0  0  0  0  0  0 20  0  0
    0.7059    1.7630   -0.7776 C   0  0  0  0  0  0  0  0  0 21  0  0
   -0.3622    2.1032   -1.6001 C   0  0  0  0  0  0  0  0  0 22  0  0
   -0.2725    2.0001   -2.6743 H   0  0  0  0  0  0  0  0  0 31  0  0
   -1.5587    2.5286   -1.0432 C   0  0  0  0  0  0  0  0  0 23  0  0
   -2.3897    2.7821   -1.6809 H   0  0  0  0  0  0  0  0  0 30  0  0
   -1.6896    2.6226    0.3347 C   0  0  0  0  0  0  0  0  0 24  0  0
   -2.6214    2.9530    0.7685 H   0  0  0  0  0  0  0  0  0 29  0  0
   -0.6146    2.3052    1.1490 C   0  0  0  0  0  0  0  0  0 25  0  0
   -0.7113    2.3767    2.2225 H   0  0  0  0  0  0  0  0  0 28  0  0
    0.5779    1.8876    0.5940 C   0  0  0  0  0  0  0  0  0 26  0  0
    1.4042    1.6182    1.2366 H   0  0  0  0  0  0  0  0  0 27  0  0
    2.7972    1.9543   -1.2705 H   0  0  0  0  0  0  0  0  0 32  0  0
    1.8370    1.0405   -2.4495 H   0  0  0  0  0  0  0  0  0 33  0  0
   -0.0886   -0.4645   -1.4248 H   0  0  0  0  0  0  0  0  0 42  0  0
   -2.5646   -0.8083   -1.2637 C   0  0  0  0  0  0  0  0  0  4  0  0
   -1.9374   -1.0319   -2.1121 H   0  0  0  0  0  0  0  0  0  9  0  0
   -3.8804   -0.4419   -1.4681 C   0  0  0  0  0  0  0  0  0  5  0  0
   -4.2589   -0.3448   -2.4663 H   0  0  0  0  0  0  0  0  0  8  0  0
   -4.7054   -0.1754   -0.3874 C   0  0  0  0  0  0  0  0  0  6  0  0
   -5.7332    0.1257   -0.5526 H   0  0  0  0  0  0  0  0  0  7  0  0
   -5.7068    0.8617    1.9448 H   0  0  0  0  0  0  0  0  0 44  0  0
   -4.5779    0.0037    3.0085 H   0  0  0  0  0  0  0  0  0 45  0  0
   -5.8667   -0.8830    2.1840 H   0  0  0  0  0  0  0  0  0 46  0  0
  1  2  1  0
  2  3  4  0
  3  4  1  0
  3  5  4  0
  5  6  1  0
  6  7  2  0
  6  8  1  0
  8  9  1  0
  9 10  4  0
 10 11  1  0
 11 12  3  0
 10 13  4  0
 13 14  1  0
 14 15  1  0
 14 16  1  0
 14 17  1  0
 13 18  4  0
 18 19  1  0
 19 20  1  0
 19 21  1  0
 19 22  1  0
 18 23  4  0
 23 24  1  0
 24 25  1  0
 25 26  4  0
 26 27  1  0
 26 28  4  0
 28 29  1  0
 28 30  4  0
 30 31  1  0
 30 32  4  0
 32 33  1  0
 32 34  4  0
 34 35  1  0
 24 36  1  0
 24 37  1  0
  8 38  1  0
  5 39  4  0
 39 40  1  0
 39 41  4  0
 41 42  1  0
 41 43  4  0
 43 44  1  0
  1 45  1  0
  1 46  1  0
  1 47  1  0
 43  2  4  0
 23  9  4  0
 34 25  4  0
M  END
>  <sample_id>  (404)
train::Cc1cccc(C(=O)Nc2c(C#N)c(C)c(C)n2Cc2ccccc2)c1__gen0001

>  <partition>  (404)
BAT_EXTERNAL_CONFIRM

>  <method>  (404)
BA_seed193

>  <candidate>  (404)
primary

$$$$
train::Cc1cccc(C(=O)Nc2c(C#N)c(C)c(C)n2Cc2ccccc2)c1__gen0002
     RDKit          3D

 47 49  0  0  0  0  0  0  0  0999 V2000
    1.5602    4.9903    1.7574 C   0  0  0  0  0  0  0  0  0  0  0  0
    1.8235    3.5218    1.9249 C   0  0  0  0  0  0  0  0  0  1  0  0
    1.4910    2.6265    0.9207 C   0  0  0  0  0  0  0  0  0  2  0  0
    1.0405    2.9960    0.0127 H   0  0  0  0  0  0  0  0  0 43  0  0
    1.7616    1.2666    1.0702 C   0  0  0  0  0  0  0  0  0  3  0  0
    1.4233    0.2597    0.0290 C   0  0  0  0  0  0  0  0  0 10  0  0
    2.1247   -0.7044   -0.2112 O   0  0  0  0  0  0  0  0  0 11  0  0
    0.2458    0.5218   -0.6173 N   0  0  0  0  0  0  0  0  0 12  0  0
   -0.3801   -0.2156   -1.6102 C   0  0  0  0  0  0  0  0  0 13  0  0
   -1.0800    0.3027   -2.6915 C   0  0  0  0  0  0  0  0  0 14  0  0
   -1.2348    1.6741   -2.9629 C   0  0  0  0  0  0  0  0  0 15  0  0
   -1.3565    2.7965   -3.1493 N   0  0  0  0  0  0  0  0  0 16  0  0
   -1.5997   -0.7715   -3.4309 C   0  0  0  0  0  0  0  0  0 17  0  0
   -2.3915   -0.6654   -4.6835 C   0  0  0  0  0  0  0  0  0 38  0  0
   -2.5532    0.3849   -4.9341 H   0  0  0  0  0  0  0  0  0 39  0  0
   -3.3626   -1.1420   -4.5709 H   0  0  0  0  0  0  0  0  0 40  0  0
   -1.8750   -1.1330   -5.5172 H   0  0  0  0  0  0  0  0  0 41  0  0
   -1.2187   -1.9284   -2.7781 C   0  0  0  0  0  0  0  0  0 18  0  0
   -1.4840   -3.3410   -3.1258 C   0  0  0  0  0  0  0  0  0 34  0  0
   -0.5576   -3.9055   -3.2327 H   0  0  0  0  0  0  0  0  0 35  0  0
   -2.0943   -3.8208   -2.3615 H   0  0  0  0  0  0  0  0  0 36  0  0
   -2.0333   -3.3802   -4.0625 H   0  0  0  0  0  0  0  0  0 37  0  0
   -0.4796   -1.5783   -1.6615 N   0  0  0  0  0  0  0  0  0 19  0  0
    0.0036   -2.4977   -0.6680 C   0  0  0  0  0  0  0  0  0 20  0  0
   -0.4067   -2.0886    0.7395 C   0  0  0  0  0  0  0  0  0 21  0  0
   -1.6127   -1.4474    0.9897 C   0  0  0  0  0  0  0  0  0 22  0  0
   -2.2786   -1.2286    0.1679 H   0  0  0  0  0  0  0  0  0 31  0  0
   -1.9518   -1.0658    2.2740 C   0  0  0  0  0  0  0  0  0 23  0  0
   -2.8859   -0.5498    2.4417 H   0  0  0  0  0  0  0  0  0 30  0  0
   -1.0906   -1.3278    3.3249 C   0  0  0  0  0  0  0  0  0 24  0  0
   -1.3622   -1.0165    4.3191 H   0  0  0  0  0  0  0  0  0 29  0  0
    0.1107   -1.9759    3.0857 C   0  0  0  0  0  0  0  0  0 25  0  0
    0.7776   -2.1939    3.9047 H   0  0  0  0  0  0  0  0  0 28  0  0
    0.4400   -2.3714    1.8016 C   0  0  0  0  0  0  0  0  0 26  0  0
    1.3832   -2.8628    1.6149 H   0  0  0  0  0  0  0  0  0 27  0  0
   -0.4075   -3.4868   -0.8959 H   0  0  0  0  0  0  0  0  0 32  0  0
    1.0971   -2.5523   -0.7035 H   0  0  0  0  0  0  0  0  0 33  0  0
   -0.1748    1.4304   -0.4669 H   0  0  0  0  0  0  0  0  0 42  0  0
    2.3959    0.8096    2.2204 C   0  0  0  0  0  0  0  0  0  4  0  0
    2.6265   -0.2448    2.3055 H   0  0  0  0  0  0  0  0  0  9  0  0
    2.7165    1.6962    3.2304 C   0  0  0  0  0  0  0  0  0  5  0  0
    3.2021    1.3451    4.1275 H   0  0  0  0  0  0  0  0  0  8  0  0
    2.4426    3.0443    3.0761 C   0  0  0  0  0  0  0  0  0  6  0  0
    2.6912    3.7376    3.8669 H   0  0  0  0  0  0  0  0  0  7  0  0
    0.7788    5.1621    1.0147 H   0  0  0  0  0  0  0  0  0 44  0  0
    1.2676    5.4449    2.7009 H   0  0  0  0  0  0  0  0  0 45  0  0
    2.4677    5.4849    1.4146 H   0  0  0  0  0  0  0  0  0 46  0  0
  1  2  1  0
  2  3  4  0
  3  4  1  0
  3  5  4  0
  5  6  1  0
  6  7  2  0
  6  8  1  0
  8  9  1  0
  9 10  4  0
 10 11  1  0
 11 12  3  0
 10 13  4  0
 13 14  1  0
 14 15  1  0
 14 16  1  0
 14 17  1  0
 13 18  4  0
 18 19  1  0
 19 20  1  0
 19 21  1  0
 19 22  1  0
 18 23  4  0
 23 24  1  0
 24 25  1  0
 25 26  4  0
 26 27  1  0
 26 28  4  0
 28 29  1  0
 28 30  4  0
 30 31  1  0
 30 32  4  0
 32 33  1  0
 32 34  4  0
 34 35  1  0
 24 36  1  0
 24 37  1  0
  8 38  1  0
  5 39  4  0
 39 40  1  0
 39 41  4  0
 41 42  1  0
 41 43  4  0
 43 44  1  0
  1 45  1  0
  1 46  1  0
  1 47  1  0
 43  2  4  0
 23  9  4  0
 34 25  4  0
M  END
>  <sample_id>  (405)
train::Cc1cccc(C(=O)Nc2c(C#N)c(C)c(C)n2Cc2ccccc2)c1__gen0002

>  <partition>  (405)
BAT_EXTERNAL_CONFIRM

>  <method>  (405)
BA_seed193

>  <candidate>  (405)
primary

$$$$
train::CC1(c2nnc(-c3ccc(Cl)cc3)o2)CC(c2ccncc2)=NO1__gen0000
     RDKit          3D

 37 40  0  0  0  0  0  0  0  0999 V2000
   -2.0530   -1.8640    0.1845 C   0  0  0  0  0  0  0  0  0  0  0  0
   -1.8166   -2.3914   -0.7338 H   0  0  0  0  0  0  0  0  0  1  0  0
   -3.1207   -1.6824    0.2160 H   0  0  0  0  0  0  0  0  0  2  0  0
   -1.7496   -2.4763    1.0316 H   0  0  0  0  0  0  0  0  0  3  0  0
   -1.3128   -0.5202    0.2107 C   0  0  2  0  0  0  0  0  0  4  0  0
    0.1650   -0.7255    0.1630 C   0  0  0  0  0  0  0  0  0  5  0  0
    1.0530   -0.2242    0.9665 N   0  0  0  0  0  0  0  0  0  6  0  0
    2.2402   -0.6465    0.5447 N   0  0  0  0  0  0  0  0  0  7  0  0
    2.0512   -1.3795   -0.5069 C   0  0  0  0  0  0  0  0  0  8  0  0
    3.0472   -2.0484   -1.3052 C   0  0  0  0  0  0  0  0  0  9  0  0
    2.6873   -2.7964   -2.4344 C   0  0  0  0  0  0  0  0  0 10  0  0
    1.6332   -2.8800   -2.7018 H   0  0  0  0  0  0  0  0  0 19  0  0
    3.6477   -3.4266   -3.1882 C   0  0  0  0  0  0  0  0  0 11  0  0
    3.3742   -4.0075   -4.0490 H   0  0  0  0  0  0  0  0  0 18  0  0
    4.9758   -3.3121   -2.8296 C   0  0  0  0  0  0  0  0  0 12  0  0
    6.1848   -4.0930   -3.7707 Cl  0  0  0  0  0  0  0  0  0 17  0  0
    5.3618   -2.5777   -1.7109 C   0  0  0  0  0  0  0  0  0 13  0  0
    6.4043   -2.4846   -1.4497 H   0  0  0  0  0  0  0  0  0 16  0  0
    4.3944   -1.9329   -0.9608 C   0  0  0  0  0  0  0  0  0 14  0  0
    4.6582   -1.3545   -0.0949 H   0  0  0  0  0  0  0  0  0 15  0  0
    0.7238   -1.4764   -0.8011 O   0  0  0  0  0  0  0  0  0 20  0  0
   -1.7245    0.3785    1.4000 C   0  0  0  0  0  0  0  0  0 21  0  0
   -0.8533    0.5944    2.0340 H   0  0  0  0  0  0  0  0  0 35  0  0
   -2.5101   -0.0821    2.0014 H   0  0  0  0  0  0  0  0  0 36  0  0
   -2.1938    1.5980    0.6509 C   0  0  0  0  0  0  0  0  0 22  0  0
   -2.6736    2.8061    1.2683 C   0  0  0  0  0  0  0  0  0 25  0  0
   -3.0793    3.8981    0.4849 C   0  0  0  0  0  0  0  0  0 26  0  0
   -3.0016    3.8375   -0.5775 H   0  0  0  0  0  0  0  0  0 34  0  0
   -3.5195    5.0427    1.1295 C   0  0  0  0  0  0  0  0  0 27  0  0
   -3.8184    5.9086    0.5633 H   0  0  0  0  0  0  0  0  0 33  0  0
   -3.6029    5.1534    2.4386 N   0  0  0  0  0  0  0  0  0 28  0  0
   -3.2291    4.1259    3.1807 C   0  0  0  0  0  0  0  0  0 29  0  0
   -3.3147    4.2749    4.2544 H   0  0  0  0  0  0  0  0  0 32  0  0
   -2.7557    2.9480    2.6595 C   0  0  0  0  0  0  0  0  0 30  0  0
   -2.4704    2.1338    3.3181 H   0  0  0  0  0  0  0  0  0 31  0  0
   -2.1219    1.4553   -0.6078 N   0  0  0  0  0  0  0  0  0 23  0  0
   -1.6806    0.2269   -0.9786 O   0  0  0  0  0  0  0  0  0 24  0  0
  1  2  1  0
  1  3  1  0
  1  4  1  0
  5  1  1  1
  5  6  1  0
  6  7  4  0
  7  8  4  0
  8  9  4  0
  9 10  1  0
 10 11  4  0
 11 12  1  0
 11 13  4  0
 13 14  1  0
 13 15  4  0
 15 16  1  0
 15 17  4  0
 17 18  1  0
 17 19  4  0
 19 20  1  0
  9 21  4  0
  5 22  1  0
 22 23  1  0
 22 24  1  0
 22 25  1  0
 25 26  1  0
 26 27  4  0
 27 28  1  0
 27 29  4  0
 29 30  1  0
 29 31  4  0
 31 32  4  0
 32 33  1  0
 32 34  4  0
 34 35  1  0
 25 36  2  0
 36 37  1  0
 37  5  1  0
 21  6  4  0
 34 26  4  0
 19 10  4  0
M  END
>  <sample_id>  (406)
train::CC1(c2nnc(-c3ccc(Cl)cc3)o2)CC(c2ccncc2)=NO1__gen0000

>  <partition>  (406)
BAT_EXTERNAL_CONFIRM

>  <method>  (406)
BA_seed193

>  <candidate>  (406)
primary

$$$$
train::CC1(c2nnc(-c3ccc(Cl)cc3)o2)CC(c2ccncc2)=NO1__gen0001
     RDKit          3D

 37 40  0  0  0  0  0  0  0  0999 V2000
   -2.7121   -1.3197    2.0873 C   0  0  0  0  0  0  0  0  0  0  0  0
   -3.2597   -2.1865    1.7049 H   0  0  0  0  0  0  0  0  0  1  0  0
   -3.3892   -0.4771    2.2064 H   0  0  0  0  0  0  0  0  0  2  0  0
   -2.2888   -1.5607    3.0531 H   0  0  0  0  0  0  0  0  0  3  0  0
   -1.5907   -0.9440    1.1186 C   0  0  2  0  0  0  0  0  0  4  0  0
   -0.9810    0.3530    1.5396 C   0  0  0  0  0  0  0  0  0  5  0  0
   -1.5513    1.3504    2.1085 N   0  0  0  0  0  0  0  0  0  6  0  0
   -0.6419    2.3029    2.2793 N   0  0  0  0  0  0  0  0  0  7  0  0
    0.4921    1.8324    1.8011 C   0  0  0  0  0  0  0  0  0  8  0  0
    1.7765    2.5013    1.7731 C   0  0  0  0  0  0  0  0  0  9  0  0
    2.8965    1.8689    1.2452 C   0  0  0  0  0  0  0  0  0 10  0  0
    2.8042    0.8793    0.8444 H   0  0  0  0  0  0  0  0  0 19  0  0
    4.1105    2.5239    1.2250 C   0  0  0  0  0  0  0  0  0 11  0  0
    4.9853    2.0375    0.8223 H   0  0  0  0  0  0  0  0  0 18  0  0
    4.2086    3.8040    1.7480 C   0  0  0  0  0  0  0  0  0 12  0  0
    5.7301    4.6145    1.7302 Cl  0  0  0  0  0  0  0  0  0 17  0  0
    3.0958    4.4481    2.2778 C   0  0  0  0  0  0  0  0  0 13  0  0
    3.1886    5.4426    2.6879 H   0  0  0  0  0  0  0  0  0 16  0  0
    1.8809    3.7982    2.2955 C   0  0  0  0  0  0  0  0  0 14  0  0
    0.9937    4.2595    2.7087 H   0  0  0  0  0  0  0  0  0 15  0  0
    0.3173    0.5913    1.3041 O   0  0  0  0  0  0  0  0  0 20  0  0
   -2.0282   -0.8916   -0.3566 C   0  0  0  0  0  0  0  0  0 21  0  0
   -3.0834   -1.1304   -0.4861 H   0  0  0  0  0  0  0  0  0 35  0  0
   -1.8277    0.0744   -0.8226 H   0  0  0  0  0  0  0  0  0 36  0  0
   -1.1454   -1.9755   -0.9409 C   0  0  0  0  0  0  0  0  0 22  0  0
   -1.1287   -2.3645   -2.3359 C   0  0  0  0  0  0  0  0  0 25  0  0
   -1.9475   -1.7585   -3.2849 C   0  0  0  0  0  0  0  0  0 26  0  0
   -2.6174   -0.9518   -3.0114 H   0  0  0  0  0  0  0  0  0 34  0  0
   -1.8658   -2.1873   -4.5993 C   0  0  0  0  0  0  0  0  0 27  0  0
   -2.4824   -1.7312   -5.3711 H   0  0  0  0  0  0  0  0  0 33  0  0
   -1.0721   -3.1512   -5.0057 N   0  0  0  0  0  0  0  0  0 28  0  0
   -0.2994   -3.7425   -4.1097 C   0  0  0  0  0  0  0  0  0 29  0  0
    0.3453   -4.5277   -4.4856 H   0  0  0  0  0  0  0  0  0 32  0  0
   -0.2804   -3.3926   -2.7716 C   0  0  0  0  0  0  0  0  0 30  0  0
    0.3527   -3.8953   -2.0603 H   0  0  0  0  0  0  0  0  0 31  0  0
   -0.4073   -2.5251   -0.0708 N   0  0  0  0  0  0  0  0  0 23  0  0
   -0.5773   -1.9686    1.1517 O   0  0  0  0  0  0  0  0  0 24  0  0
  1  2  1  0
  1  3  1  0
  1  4  1  0
  5  1  1  1
  5  6  1  0
  6  7  4  0
  7  8  4  0
  8  9  4  0
  9 10  1  0
 10 11  4  0
 11 12  1  0
 11 13  4  0
 13 14  1  0
 13 15  4  0
 15 16  1  0
 15 17  4  0
 17 18  1  0
 17 19  4  0
 19 20  1  0
  9 21  4  0
  5 22  1  0
 22 23  1  0
 22 24  1  0
 22 25  1  0
 25 26  1  0
 26 27  4  0
 27 28  1  0
 27 29  4  0
 29 30  1  0
 29 31  4  0
 31 32  4  0
 32 33  1  0
 32 34  4  0
 34 35  1  0
 25 36  2  0
 36 37  1  0
 37  5  1  0
 21  6  4  0
 34 26  4  0
 19 10  4  0
M  END
>  <sample_id>  (407)
train::CC1(c2nnc(-c3ccc(Cl)cc3)o2)CC(c2ccncc2)=NO1__gen0001

>  <partition>  (407)
BAT_EXTERNAL_CONFIRM

>  <method>  (407)
BA_seed193

>  <candidate>  (407)
primary

$$$$
train::CC1(c2nnc(-c3ccc(Cl)cc3)o2)CC(c2ccncc2)=NO1__gen0002
     RDKit          3D

 37 40  0  0  0  0  0  0  0  0999 V2000
   -2.1284   -2.9810   -0.6198 C   0  0  0  0  0  0  0  0  0  0  0  0
   -2.0333   -2.9086   -1.6949 H   0  0  0  0  0  0  0  0  0  1  0  0
   -1.7472   -3.9335   -0.2654 H   0  0  0  0  0  0  0  0  0  2  0  0
   -3.1871   -2.8816   -0.3737 H   0  0  0  0  0  0  0  0  0  3  0  0
   -1.3542   -1.8365    0.0329 C   0  0  2  0  0  0  0  0  0  4  0  0
   -1.8832   -0.5294   -0.4454 C   0  0  0  0  0  0  0  0  0  5  0  0
   -3.1048   -0.2585   -0.7494 N   0  0  0  0  0  0  0  0  0  6  0  0
   -3.1526    1.0076   -1.1330 N   0  0  0  0  0  0  0  0  0  7  0  0
   -1.9305    1.4937   -1.0568 C   0  0  0  0  0  0  0  0  0  8  0  0
   -1.5006    2.8318   -1.3821 C   0  0  0  0  0  0  0  0  0  9  0  0
   -2.4252    3.7606   -1.8426 C   0  0  0  0  0  0  0  0  0 10  0  0
   -3.4551    3.4665   -1.9289 H   0  0  0  0  0  0  0  0  0 19  0  0
   -2.0179    5.0357   -2.1575 C   0  0  0  0  0  0  0  0  0 11  0  0
   -2.7296    5.7737   -2.4989 H   0  0  0  0  0  0  0  0  0 18  0  0
   -0.6767    5.3804   -2.0262 C   0  0  0  0  0  0  0  0  0 12  0  0
   -0.1591    6.9922   -2.4228 Cl  0  0  0  0  0  0  0  0  0 17  0  0
    0.2611    4.4595   -1.5692 C   0  0  0  0  0  0  0  0  0 13  0  0
    1.2918    4.7475   -1.4820 H   0  0  0  0  0  0  0  0  0 16  0  0
   -0.1541    3.1811   -1.2560 C   0  0  0  0  0  0  0  0  0 14  0  0
    0.5605    2.4510   -0.9044 H   0  0  0  0  0  0  0  0  0 15  0  0
   -1.0788    0.5408   -0.6146 O   0  0  0  0  0  0  0  0  0 20  0  0
    0.1721   -1.9899   -0.1099 C   0  0  0  0  0  0  0  0  0 21  0  0
    0.6229   -1.1365   -0.6296 H   0  0  0  0  0  0  0  0  0 35  0  0
    0.4309   -2.8899   -0.6702 H   0  0  0  0  0  0  0  0  0 36  0  0
    0.5848   -2.0686    1.3326 C   0  0  0  0  0  0  0  0  0 22  0  0
    1.9455   -2.2280    1.8149 C   0  0  0  0  0  0  0  0  0 25  0  0
    3.0206   -2.3261    0.9262 C   0  0  0  0  0  0  0  0  0 26  0  0
    2.8816   -2.2713   -0.1425 H   0  0  0  0  0  0  0  0  0 34  0  0
    4.2935   -2.4834    1.4497 C   0  0  0  0  0  0  0  0  0 27  0  0
    5.1532   -2.5623    0.7992 H   0  0  0  0  0  0  0  0  0 33  0  0
    4.5476   -2.5495    2.7434 N   0  0  0  0  0  0  0  0  0 28  0  0
    3.5321   -2.4513    3.5836 C   0  0  0  0  0  0  0  0  0 29  0  0
    3.7821   -2.5095    4.6389 H   0  0  0  0  0  0  0  0  0 32  0  0
    2.2174   -2.2943    3.1769 C   0  0  0  0  0  0  0  0  0 30  0  0
    1.4080   -2.2213    3.8901 H   0  0  0  0  0  0  0  0  0 31  0  0
   -0.4126   -1.9550    2.1294 N   0  0  0  0  0  0  0  0  0 23  0  0
   -1.5743   -1.8561    1.4581 O   0  0  0  0  0  0  0  0  0 24  0  0
  1  2  1  0
  1  3  1  0
  1  4  1  0
  5  1  1  6
  5  6  1  0
  6  7  4  0
  7  8  4  0
  8  9  4  0
  9 10  1  0
 10 11  4  0
 11 12  1  0
 11 13  4  0
 13 14  1  0
 13 15  4  0
 15 16  1  0
 15 17  4  0
 17 18  1  0
 17 19  4  0
 19 20  1  0
  9 21  4  0
  5 22  1  0
 22 23  1  0
 22 24  1  0
 22 25  1  0
 25 26  1  0
 26 27  4  0
 27 28  1  0
 27 29  4  0
 29 30  1  0
 29 31  4  0
 31 32  4  0
 32 33  1  0
 32 34  4  0
 34 35  1  0
 25 36  2  0
 36 37  1  0
 37  5  1  0
 21  6  4  0
 34 26  4  0
 19 10  4  0
M  END
>  <sample_id>  (408)
train::CC1(c2nnc(-c3ccc(Cl)cc3)o2)CC(c2ccncc2)=NO1__gen0002

>  <partition>  (408)
BAT_EXTERNAL_CONFIRM

>  <method>  (408)
BA_seed193

>  <candidate>  (408)
primary

$$$$
train::CC(C)Oc1ccc(CCc2n[nH]c(=S)n2Cc2ccccc2)cc1__gen0000
     RDKit          3D

 48 50  0  0  0  0  0  0  0  0999 V2000
    1.4040    3.3282   -4.0743 C   0  0  0  0  0  0  0  0  0  0  0  0
    0.5357    2.6879   -4.1667 H   0  0  0  0  0  0  0  0  0  1  0  0
    1.0652    4.3624   -4.0180 H   0  0  0  0  0  0  0  0  0  2  0  0
    2.0347    3.1989   -4.9521 H   0  0  0  0  0  0  0  0  0  3  0  0
    2.1985    2.9932   -2.8059 C   0  0  1  0  0  0  0  0  0  4  0  0
    3.3801    3.9248   -2.6262 C   0  0  0  0  0  0  0  0  0  5  0  0
    3.9260    3.6843   -1.7237 H   0  0  0  0  0  0  0  0  0  6  0  0
    3.0405    4.9477   -2.5610 H   0  0  0  0  0  0  0  0  0  7  0  0
    4.0630    3.8365   -3.4745 H   0  0  0  0  0  0  0  0  0  8  0  0
    2.5641    1.9560   -2.8640 H   0  0  0  0  0  0  0  0  0  9  0  0
    1.3775    3.1457   -1.6534 O   0  0  0  0  0  0  0  0  0 10  0  0
    0.4589    2.2190   -1.3127 C   0  0  0  0  0  0  0  0  0 11  0  0
   -0.3466    2.5271   -0.2218 C   0  0  0  0  0  0  0  0  0 12  0  0
   -0.1934    3.4874    0.2575 H   0  0  0  0  0  0  0  0  0 47  0  0
   -1.2813    1.6377    0.2603 C   0  0  0  0  0  0  0  0  0 13  0  0
   -1.8831    1.9437    1.1002 H   0  0  0  0  0  0  0  0  0 46  0  0
   -1.4476    0.3978   -0.3377 C   0  0  0  0  0  0  0  0  0 14  0  0
   -2.4455   -0.6131    0.1624 C   0  0  0  0  0  0  0  0  0 19  0  0
   -2.1238   -1.6009   -0.1808 H   0  0  0  0  0  0  0  0  0 20  0  0
   -3.4322   -0.4325   -0.2843 H   0  0  0  0  0  0  0  0  0 21  0  0
   -2.5681   -0.6344    1.6919 C   0  0  0  0  0  0  0  0  0 22  0  0
   -2.6769   -2.0231    2.1856 C   0  0  0  0  0  0  0  0  0 23  0  0
   -3.7065   -2.8035    1.9895 N   0  0  0  0  0  0  0  0  0 24  0  0
   -3.3606   -3.9932    2.5374 N   0  0  0  0  0  0  0  0  0 25  0  0
   -3.9966   -4.7757    2.5187 H   0  0  0  0  0  0  0  0  0 43  0  0
   -2.1164   -3.9769    3.0528 C   0  0  0  0  0  0  0  0  0 26  0  0
   -1.3009   -5.2094    3.7700 S   0  0  0  0  0  0  0  0  0 27  0  0
   -1.6783   -2.6865    2.8250 N   0  0  0  0  0  0  0  0  0 28  0  0
   -0.3769   -2.1909    3.2189 C   0  0  0  0  0  0  0  0  0 29  0  0
    0.4567   -1.8089    2.0258 C   0  0  0  0  0  0  0  0  0 30  0  0
    0.6051   -2.7140    0.9803 C   0  0  0  0  0  0  0  0  0 31  0  0
    0.1473   -3.6897    1.0494 H   0  0  0  0  0  0  0  0  0 40  0  0
    1.3701   -2.3831   -0.1244 C   0  0  0  0  0  0  0  0  0 32  0  0
    1.4897   -3.0875   -0.9287 H   0  0  0  0  0  0  0  0  0 39  0  0
    1.9889   -1.1518   -0.1961 C   0  0  0  0  0  0  0  0  0 33  0  0
    2.5837   -0.8912   -1.0637 H   0  0  0  0  0  0  0  0  0 38  0  0
    1.8365   -0.2452    0.8397 C   0  0  0  0  0  0  0  0  0 34  0  0
    2.3115    0.7320    0.7875 H   0  0  0  0  0  0  0  0  0 37  0  0
    1.0734   -0.5641    1.9470 C   0  0  0  0  0  0  0  0  0 35  0  0
    0.9705    0.1403    2.7491 H   0  0  0  0  0  0  0  0  0 36  0  0
   -0.5230   -1.3463    3.8866 H   0  0  0  0  0  0  0  0  0 41  0  0
    0.1063   -3.0007    3.7657 H   0  0  0  0  0  0  0  0  0 42  0  0
   -1.6853   -0.1833    2.1134 H   0  0  0  0  0  0  0  0  0 44  0  0
   -3.4455   -0.0733    2.0145 H   0  0  0  0  0  0  0  0  0 45  0  0
   -0.6782    0.0925   -1.4508 C   0  0  0  0  0  0  0  0  0 15  0  0
   -0.8196   -0.8571   -1.9410 H   0  0  0  0  0  0  0  0  0 18  0  0
    0.2588    0.9851   -1.9475 C   0  0  0  0  0  0  0  0  0 16  0  0
    0.8395    0.7081   -2.8200 H   0  0  0  0  0  0  0  0  0 17  0  0
  1  2  1  0
  1  3  1  0
  1  4  1  0
  1  5  1  0
  5  6  1  0
  6  7  1  0
  6  8  1  0
  6  9  1  0
  5 10  1  6
  5 11  1  0
 11 12  1  0
 12 13  4  0
 13 14  1  0
 13 15  4  0
 15 16  1  0
 15 17  4  0
 17 18  1  0
 18 19  1  0
 18 20  1  0
 18 21  1  0
 21 22  1  0
 22 23  4  0
 23 24  4  0
 24 25  1  0
 24 26  4  0
 26 27  2  0
 26 28  4  0
 28 29  1  0
 29 30  1  0
 30 31  4  0
 31 32  1  0
 31 33  4  0
 33 34  1  0
 33 35  4  0
 35 36  1  0
 35 37  4  0
 37 38  1  0
 37 39  4  0
 39 40  1  0
 29 41  1  0
 29 42  1  0
 21 43  1  0
 21 44  1  0
 17 45  4  0
 45 46  1  0
 45 47  4  0
 47 48  1  0
 47 12  4  0
 28 22  4  0
 39 30  4  0
M  END
>  <sample_id>  (409)
train::CC(C)Oc1ccc(CCc2n[nH]c(=S)n2Cc2ccccc2)cc1__gen0000

>  <partition>  (409)
BAT_EXTERNAL_CONFIRM

>  <method>  (409)
BA_seed193

>  <candidate>  (409)
primary

$$$$
train::CC(C)Oc1ccc(CCc2n[nH]c(=S)n2Cc2ccccc2)cc1__gen0001
     RDKit          3D

 48 50  0  0  0  0  0  0  0  0999 V2000
   -3.7968   -3.5001    0.5041 C   0  0  0  0  0  0  0  0  0  0  0  0
   -4.3527   -4.1338   -0.1722 H   0  0  0  0  0  0  0  0  0  1  0  0
   -4.1294   -2.4838    0.3274 H   0  0  0  0  0  0  0  0  0  2  0  0
   -4.0385   -3.7765    1.5259 H   0  0  0  0  0  0  0  0  0  3  0  0
   -2.2993   -3.6903    0.2526 C   0  0  1  0  0  0  0  0  0  4  0  0
   -1.8591   -3.1155   -1.1068 C   0  0  0  0  0  0  0  0  0  5  0  0
   -2.0160   -2.0428   -1.1392 H   0  0  0  0  0  0  0  0  0  6  0  0
   -0.8176   -3.3307   -1.2612 H   0  0  0  0  0  0  0  0  0  7  0  0
   -2.4465   -3.5885   -1.8817 H   0  0  0  0  0  0  0  0  0  8  0  0
   -2.0909   -4.7720    0.2651 H   0  0  0  0  0  0  0  0  0  9  0  0
   -1.4734   -3.2473    1.3246 O   0  0  0  0  0  0  0  0  0 10  0  0
   -1.2200   -1.9316    1.5877 C   0  0  0  0  0  0  0  0  0 11  0  0
   -2.0651   -0.8580    1.3079 C   0  0  0  0  0  0  0  0  0 12  0  0
   -3.0143   -0.9984    0.8193 H   0  0  0  0  0  0  0  0  0 47  0  0
   -1.6830    0.4198    1.6442 C   0  0  0  0  0  0  0  0  0 13  0  0
   -2.3554    1.2620    1.4209 H   0  0  0  0  0  0  0  0  0 46  0  0
   -0.4632    0.6797    2.2587 C   0  0  0  0  0  0  0  0  0 14  0  0
   -0.0076    2.1059    2.4624 C   0  0  0  0  0  0  0  0  0 19  0  0
    0.6901    2.1711    3.3006 H   0  0  0  0  0  0  0  0  0 20  0  0
   -0.8610    2.7485    2.6536 H   0  0  0  0  0  0  0  0  0 21  0  0
    0.7117    2.5872    1.1925 C   0  0  0  0  0  0  0  0  0 22  0  0
   -0.1488    2.3929   -0.0070 C   0  0  0  0  0  0  0  0  0 23  0  0
   -1.1747    3.1385   -0.3221 N   0  0  0  0  0  0  0  0  0 24  0  0
   -1.7452    2.5441   -1.3740 N   0  0  0  0  0  0  0  0  0 25  0  0
   -2.5672    2.9493   -1.8175 H   0  0  0  0  0  0  0  0  0 43  0  0
   -1.1268    1.3901   -1.7250 C   0  0  0  0  0  0  0  0  0 26  0  0
   -1.5283    0.3357   -2.9210 S   0  0  0  0  0  0  0  0  0 27  0  0
   -0.0793    1.3078   -0.8331 N   0  0  0  0  0  0  0  0  0 28  0  0
    0.9003    0.2485   -0.8804 C   0  0  0  0  0  0  0  0  0 29  0  0
    2.2573    0.7816   -1.2779 C   0  0  0  0  0  0  0  0  0 30  0  0
    3.3847    0.4367   -0.5469 C   0  0  0  0  0  0  0  0  0 31  0  0
    3.2992   -0.2383    0.2956 H   0  0  0  0  0  0  0  0  0 40  0  0
    4.6268    0.9360   -0.9028 C   0  0  0  0  0  0  0  0  0 32  0  0
    5.4951    0.6479   -0.3386 H   0  0  0  0  0  0  0  0  0 39  0  0
    4.7512    1.7855   -1.9879 C   0  0  0  0  0  0  0  0  0 33  0  0
    5.7215    2.1749   -2.2604 H   0  0  0  0  0  0  0  0  0 38  0  0
    3.6199    2.1412   -2.7152 C   0  0  0  0  0  0  0  0  0 34  0  0
    3.7063    2.7955   -3.5648 H   0  0  0  0  0  0  0  0  0 37  0  0
    2.3784    1.6359   -2.3671 C   0  0  0  0  0  0  0  0  0 35  0  0
    1.5097    1.9063   -2.9381 H   0  0  0  0  0  0  0  0  0 36  0  0
    0.9564   -0.2564    0.0883 H   0  0  0  0  0  0  0  0  0 41  0  0
    0.5408   -0.4649   -1.6321 H   0  0  0  0  0  0  0  0  0 42  0  0
    1.6475    2.0543    1.0357 H   0  0  0  0  0  0  0  0  0 44  0  0
    0.9255    3.6571    1.2720 H   0  0  0  0  0  0  0  0  0 45  0  0
    0.3486   -0.3904    2.5909 C   0  0  0  0  0  0  0  0  0 15  0  0
    1.2962   -0.2169    3.0808 H   0  0  0  0  0  0  0  0  0 18  0  0
   -0.0214   -1.6840    2.2534 C   0  0  0  0  0  0  0  0  0 16  0  0
    0.6144   -2.5140    2.5088 H   0  0  0  0  0  0  0  0  0 17  0  0
  1  2  1  0
  1  3  1  0
  1  4  1  0
  1  5  1  0
  5  6  1  0
  6  7  1  0
  6  8  1  0
  6  9  1  0
  5 10  1  6
  5 11  1  0
 11 12  1  0
 12 13  4  0
 13 14  1  0
 13 15  4  0
 15 16  1  0
 15 17  4  0
 17 18  1  0
 18 19  1  0
 18 20  1  0
 18 21  1  0
 21 22  1  0
 22 23  4  0
 23 24  4  0
 24 25  1  0
 24 26  4  0
 26 27  2  0
 26 28  4  0
 28 29  1  0
 29 30  1  0
 30 31  4  0
 31 32  1  0
 31 33  4  0
 33 34  1  0
 33 35  4  0
 35 36  1  0
 35 37  4  0
 37 38  1  0
 37 39  4  0
 39 40  1  0
 29 41  1  0
 29 42  1  0
 21 43  1  0
 21 44  1  0
 17 45  4  0
 45 46  1  0
 45 47  4  0
 47 48  1  0
 47 12  4  0
 28 22  4  0
 39 30  4  0
M  END
>  <sample_id>  (410)
train::CC(C)Oc1ccc(CCc2n[nH]c(=S)n2Cc2ccccc2)cc1__gen0001

>  <partition>  (410)
BAT_EXTERNAL_CONFIRM

>  <method>  (410)
BA_seed193

>  <candidate>  (410)
primary

$$$$
train::CC(C)Oc1ccc(CCc2n[nH]c(=S)n2Cc2ccccc2)cc1__gen0002
     RDKit          3D

 48 50  0  0  0  0  0  0  0  0999 V2000
   -0.3199   -3.1146    4.5529 C   0  0  0  0  0  0  0  0  0  0  0  0
    0.6775   -3.5343    4.4579 H   0  0  0  0  0  0  0  0  0  1  0  0
   -0.5377   -2.9318    5.5899 H   0  0  0  0  0  0  0  0  0  2  0  0
   -1.0380   -3.8157    4.1614 H   0  0  0  0  0  0  0  0  0  3  0  0
   -0.3993   -1.8012    3.7759 C   0  0  1  0  0  0  0  0  0  4  0  0
    0.6003   -0.7802    4.3361 C   0  0  0  0  0  0  0  0  0  5  0  0
    0.5847    0.1228    3.7203 H   0  0  0  0  0  0  0  0  0  6  0  0
    1.6021   -1.1931    4.3049 H   0  0  0  0  0  0  0  0  0  7  0  0
    0.3613   -0.5323    5.3509 H   0  0  0  0  0  0  0  0  0  8  0  0
   -1.4158   -1.4010    3.8213 H   0  0  0  0  0  0  0  0  0  9  0  0
   -0.0667   -2.1162    2.4126 O   0  0  0  0  0  0  0  0  0 10  0  0
   -0.6502   -1.4699    1.3789 C   0  0  0  0  0  0  0  0  0 11  0  0
   -0.4449   -2.0329    0.1105 C   0  0  0  0  0  0  0  0  0 12  0  0
    0.1545   -2.9222    0.0425 H   0  0  0  0  0  0  0  0  0 47  0  0
   -1.0559   -1.5009   -0.9899 C   0  0  0  0  0  0  0  0  0 13  0  0
   -0.8990   -1.9656   -1.9614 H   0  0  0  0  0  0  0  0  0 46  0  0
   -1.8489   -0.3585   -0.9086 C   0  0  0  0  0  0  0  0  0 14  0  0
   -2.5069    0.2158   -2.1137 C   0  0  0  0  0  0  0  0  0 19  0  0
   -3.4408    0.7023   -1.8302 H   0  0  0  0  0  0  0  0  0 20  0  0
   -2.7626   -0.5952   -2.8196 H   0  0  0  0  0  0  0  0  0 21  0  0
   -1.6179    1.2160   -2.8406 C   0  0  0  0  0  0  0  0  0 22  0  0
   -0.4520    0.5420   -3.4567 C   0  0  0  0  0  0  0  0  0 23  0  0
   -0.5326   -0.5500   -4.1909 N   0  0  0  0  0  0  0  0  0 24  0  0
    0.7436   -0.8141   -4.5655 N   0  0  0  0  0  0  0  0  0 25  0  0
    0.9563   -1.6244   -5.1378 H   0  0  0  0  0  0  0  0  0 43  0  0
    1.6212    0.0803   -4.0852 C   0  0  0  0  0  0  0  0  0 26  0  0
    3.2463    0.1334   -4.2869 S   0  0  0  0  0  0  0  0  0 27  0  0
    0.8401    0.9850   -3.3857 N   0  0  0  0  0  0  0  0  0 28  0  0
    1.3672    2.1349   -2.6915 C   0  0  0  0  0  0  0  0  0 29  0  0
    1.3493    1.9219   -1.1967 C   0  0  0  0  0  0  0  0  0 30  0  0
    0.7167    2.8328   -0.3693 C   0  0  0  0  0  0  0  0  0 31  0  0
    0.2146    3.6880   -0.7792 H   0  0  0  0  0  0  0  0  0 40  0  0
    0.7388    2.6465    1.0006 C   0  0  0  0  0  0  0  0  0 32  0  0
    0.2602    3.3578    1.6606 H   0  0  0  0  0  0  0  0  0 39  0  0
    1.4078    1.5555    1.5400 C   0  0  0  0  0  0  0  0  0 33  0  0
    1.4531    1.4376    2.6150 H   0  0  0  0  0  0  0  0  0 38  0  0
    2.0048    0.6227    0.6969 C   0  0  0  0  0  0  0  0  0 34  0  0
    2.5254   -0.2285    1.1293 H   0  0  0  0  0  0  0  0  0 37  0  0
    1.9856    0.8226   -0.6576 C   0  0  0  0  0  0  0  0  0 35  0  0
    2.4920    0.1199   -1.2950 H   0  0  0  0  0  0  0  0  0 36  0  0
    0.7719    3.0143   -2.9609 H   0  0  0  0  0  0  0  0  0 41  0  0
    2.3884    2.2499   -3.0459 H   0  0  0  0  0  0  0  0  0 42  0  0
   -1.2651    1.9663   -2.1430 H   0  0  0  0  0  0  0  0  0 44  0  0
   -2.1983    1.7012   -3.6276 H   0  0  0  0  0  0  0  0  0 45  0  0
   -2.0143    0.2173    0.3400 C   0  0  0  0  0  0  0  0  0 15  0  0
   -2.6027    1.1219    0.4370 H   0  0  0  0  0  0  0  0  0 18  0  0
   -1.4193   -0.3028    1.4752 C   0  0  0  0  0  0  0  0  0 16  0  0
   -1.5754    0.1767    2.4285 H   0  0  0  0  0  0  0  0  0 17  0  0
  1  2  1  0
  1  3  1  0
  1  4  1  0
  1  5  1  0
  5  6  1  0
  6  7  1  0
  6  8  1  0
  6  9  1  0
  5 10  1  6
  5 11  1  0
 11 12  1  0
 12 13  4  0
 13 14  1  0
 13 15  4  0
 15 16  1  0
 15 17  4  0
 17 18  1  0
 18 19  1  0
 18 20  1  0
 18 21  1  0
 21 22  1  0
 22 23  4  0
 23 24  4  0
 24 25  1  0
 24 26  4  0
 26 27  2  0
 26 28  4  0
 28 29  1  0
 29 30  1  0
 30 31  4  0
 31 32  1  0
 31 33  4  0
 33 34  1  0
 33 35  4  0
 35 36  1  0
 35 37  4  0
 37 38  1  0
 37 39  4  0
 39 40  1  0
 29 41  1  0
 29 42  1  0
 21 43  1  0
 21 44  1  0
 17 45  4  0
 45 46  1  0
 45 47  4  0
 47 48  1  0
 47 12  4  0
 28 22  4  0
 39 30  4  0
M  END
>  <sample_id>  (411)
train::CC(C)Oc1ccc(CCc2n[nH]c(=S)n2Cc2ccccc2)cc1__gen0002

>  <partition>  (411)
BAT_EXTERNAL_CONFIRM

>  <method>  (411)
BA_seed193

>  <candidate>  (411)
primary

$$$$
train::Cc1ccccc1N(CC(=O)O)S(C)(=O)=O__gen0000
     RDKit          3D

 29 29  0  0  0  0  0  0  0  0999 V2000
   -0.7533   -2.0639    1.2049 C   0  0  0  0  0  0  0  0  0  0  0  0
    0.5194   -1.4659    0.6704 C   0  0  0  0  0  0  0  0  0  1  0  0
    1.7431   -2.0921    0.9024 C   0  0  0  0  0  0  0  0  0  2  0  0
    1.7637   -2.9945    1.4890 H   0  0  0  0  0  0  0  0  0 25  0  0
    2.9139   -1.5676    0.3871 C   0  0  0  0  0  0  0  0  0  3  0  0
    3.8603   -2.0605    0.5859 H   0  0  0  0  0  0  0  0  0 24  0  0
    2.8843   -0.4133   -0.3844 C   0  0  0  0  0  0  0  0  0  4  0  0
    3.7998   -0.0086   -0.7976 H   0  0  0  0  0  0  0  0  0 23  0  0
    1.6804    0.2052   -0.6379 C   0  0  0  0  0  0  0  0  0  5  0  0
    1.6318    1.1025   -1.2238 H   0  0  0  0  0  0  0  0  0 22  0  0
    0.5107   -0.3047   -0.1077 C   0  0  0  0  0  0  0  0  0  6  0  0
   -0.7120    0.3682   -0.3348 N   0  0  0  0  0  0  0  0  0  7  0  0
   -0.8481    1.9203    0.2477 S   0  0  1  0  0  6  0  0  0  8  0  0
    0.1927    2.7569   -0.2735 O   0  0  0  0  0  0  0  0  0  9  0  0
   -2.1924    2.3542   -0.0116 O   0  0  0  0  0  0  0  0  0 10  0  0
   -0.6178    1.7244    2.0208 C   0  0  0  0  0  0  0  0  0 11  0  0
   -1.3724    1.0473    2.3881 H   0  0  0  0  0  0  0  0  0 12  0  0
    0.3882    1.3453    2.1932 H   0  0  0  0  0  0  0  0  0 13  0  0
   -0.7412    2.7020    2.4722 H   0  0  0  0  0  0  0  0  0 14  0  0
   -1.6389   -0.0449   -1.3614 C   0  0  0  0  0  0  0  0  0 15  0  0
   -2.6431    0.2273   -1.0301 H   0  0  0  0  0  0  0  0  0 16  0  0
   -1.5639   -1.1280   -1.5144 H   0  0  0  0  0  0  0  0  0 17  0  0
   -1.3266    0.6571   -2.6941 C   0  0  0  0  0  0  0  0  0 18  0  0
   -1.0152    0.0423   -3.6756 O   0  0  0  0  0  0  0  0  0 19  0  0
   -1.4261    1.9823   -2.6673 O   0  0  0  0  0  0  0  0  0 20  0  0
   -1.8065    2.3344   -1.8551 H   0  0  0  0  0  0  0  0  0 21  0  0
   -0.5330   -2.8132    1.9552 H   0  0  0  0  0  0  0  0  0 26  0  0
   -1.3714   -1.2809    1.6461 H   0  0  0  0  0  0  0  0  0 27  0  0
   -1.3264   -2.5314    0.4060 H   0  0  0  0  0  0  0  0  0 28  0  0
  1  2  1  0
  2  3  4  0
  3  4  1  0
  3  5  4  0
  5  6  1  0
  5  7  4  0
  7  8  1  0
  7  9  4  0
  9 10  1  0
  9 11  4  0
 11 12  1  0
 13 12  1  6
 13 14  2  0
 13 15  2  0
 13 16  1  0
 16 17  1  0
 16 18  1  0
 16 19  1  0
 12 20  1  0
 20 21  1  0
 20 22  1  0
 20 23  1  0
 23 24  2  0
 23 25  1  0
 25 26  1  0
  1 27  1  0
  1 28  1  0
  1 29  1  0
 11  2  4  0
M  END
>  <sample_id>  (412)
train::Cc1ccccc1N(CC(=O)O)S(C)(=O)=O__gen0000

>  <partition>  (412)
BAT_EXTERNAL_CONFIRM

>  <method>  (412)
BA_seed193

>  <candidate>  (412)
primary

$$$$
train::Cc1ccccc1N(CC(=O)O)S(C)(=O)=O__gen0001
     RDKit          3D

 29 29  0  0  0  0  0  0  0  0999 V2000
    0.8564   -2.1344   -1.0058 C   0  0  0  0  0  0  0  0  0  0  0  0
    1.1326   -1.2259    0.1530 C   0  0  0  0  0  0  0  0  0  1  0  0
    2.1625   -1.5602    1.0254 C   0  0  0  0  0  0  0  0  0  2  0  0
    2.7125   -2.4757    0.8479 H   0  0  0  0  0  0  0  0  0 25  0  0
    2.5063   -0.7702    2.0888 C   0  0  0  0  0  0  0  0  0  3  0  0
    3.3073   -1.0594    2.7518 H   0  0  0  0  0  0  0  0  0 24  0  0
    1.8131    0.4072    2.3022 C   0  0  0  0  0  0  0  0  0  4  0  0
    2.0471    1.0406    3.1413 H   0  0  0  0  0  0  0  0  0 23  0  0
    0.7828    0.7670    1.4604 C   0  0  0  0  0  0  0  0  0  5  0  0
    0.2261    1.6724    1.6333 H   0  0  0  0  0  0  0  0  0 22  0  0
    0.4218   -0.0379    0.3833 C   0  0  0  0  0  0  0  0  0  6  0  0
   -0.6073    0.3582   -0.5131 N   0  0  0  0  0  0  0  0  0  7  0  0
   -0.8805    1.9637   -0.9180 S   0  0  1  0  0  6  0  0  0  8  0  0
   -2.2555    2.0917   -1.3040 O   0  0  0  0  0  0  0  0  0  9  0  0
   -0.3226    2.9027    0.0086 O   0  0  0  0  0  0  0  0  0 10  0  0
    0.1021    2.0843   -2.4558 C   0  0  0  0  0  0  0  0  0 11  0  0
    1.1096    1.7366   -2.2192 H   0  0  0  0  0  0  0  0  0 12  0  0
   -0.3586    1.4310   -3.1838 H   0  0  0  0  0  0  0  0  0 13  0  0
    0.1049    3.1081   -2.7536 H   0  0  0  0  0  0  0  0  0 14  0  0
   -1.7797   -0.4795   -0.5857 C   0  0  0  0  0  0  0  0  0 15  0  0
   -1.5306   -1.4887   -0.9238 H   0  0  0  0  0  0  0  0  0 16  0  0
   -2.4822   -0.0131   -1.2754 H   0  0  0  0  0  0  0  0  0 17  0  0
   -2.4164   -0.5661    0.7640 C   0  0  0  0  0  0  0  0  0 18  0  0
   -2.1438   -1.4193    1.5868 O   0  0  0  0  0  0  0  0  0 19  0  0
   -3.2816    0.3989    0.9890 O   0  0  0  0  0  0  0  0  0 20  0  0
   -3.6003    0.3786    1.9035 H   0  0  0  0  0  0  0  0  0 21  0  0
    0.0518   -2.8242   -0.7637 H   0  0  0  0  0  0  0  0  0 26  0  0
    1.7456   -2.7230   -1.2387 H   0  0  0  0  0  0  0  0  0 27  0  0
    0.5768   -1.5639   -1.8987 H   0  0  0  0  0  0  0  0  0 28  0  0
  1  2  1  0
  2  3  4  0
  3  4  1  0
  3  5  4  0
  5  6  1  0
  5  7  4  0
  7  8  1  0
  7  9  4  0
  9 10  1  0
  9 11  4  0
 11 12  1  0
 13 12  1  1
 13 14  2  0
 13 15  2  0
 13 16  1  0
 16 17  1  0
 16 18  1  0
 16 19  1  0
 12 20  1  0
 20 21  1  0
 20 22  1  0
 20 23  1  0
 23 24  2  0
 23 25  1  0
 25 26  1  0
  1 27  1  0
  1 28  1  0
  1 29  1  0
 11  2  4  0
M  END
>  <sample_id>  (413)
train::Cc1ccccc1N(CC(=O)O)S(C)(=O)=O__gen0001

>  <partition>  (413)
BAT_EXTERNAL_CONFIRM

>  <method>  (413)
BA_seed193

>  <candidate>  (413)
primary

$$$$
train::Cc1ccccc1N(CC(=O)O)S(C)(=O)=O__gen0002
     RDKit          3D

 29 29  0  0  0  0  0  0  0  0999 V2000
    0.7717   -1.3919    1.6738 C   0  0  0  0  0  0  0  0  0  0  0  0
   -0.3315   -1.3955    0.6805 C   0  0  0  0  0  0  0  0  0  1  0  0
   -1.2068   -2.4730    0.6139 C   0  0  0  0  0  0  0  0  0  2  0  0
   -1.0572   -3.3010    1.2964 H   0  0  0  0  0  0  0  0  0 25  0  0
   -2.2378   -2.5268   -0.3020 C   0  0  0  0  0  0  0  0  0  3  0  0
   -2.9075   -3.3730   -0.3173 H   0  0  0  0  0  0  0  0  0 24  0  0
   -2.4568   -1.4631   -1.1611 C   0  0  0  0  0  0  0  0  0  4  0  0
   -3.2618   -1.4816   -1.8793 H   0  0  0  0  0  0  0  0  0 23  0  0
   -1.6015   -0.3790   -1.1257 C   0  0  0  0  0  0  0  0  0  5  0  0
   -1.7441    0.4626   -1.7828 H   0  0  0  0  0  0  0  0  0 22  0  0
   -0.5524   -0.3304   -0.2113 C   0  0  0  0  0  0  0  0  0  6  0  0
    0.2555    0.8180   -0.1906 N   0  0  0  0  0  0  0  0  0  7  0  0
    0.2900    1.8388    1.1095 S   0  0  1  0  0  6  0  0  0  8  0  0
   -0.4701    1.2535    2.1813 O   0  0  0  0  0  0  0  0  0  9  0  0
    1.6299    2.2679    1.3650 O   0  0  0  0  0  0  0  0  0 10  0  0
   -0.6613    3.2503    0.4885 C   0  0  0  0  0  0  0  0  0 11  0  0
   -1.5995    2.8803    0.0935 H   0  0  0  0  0  0  0  0  0 12  0  0
   -0.0787    3.7309   -0.2834 H   0  0  0  0  0  0  0  0  0 13  0  0
   -0.8222    3.9228    1.3151 H   0  0  0  0  0  0  0  0  0 14  0  0
    1.2391    1.0226   -1.2393 C   0  0  0  0  0  0  0  0  0 15  0  0
    1.5834    2.0562   -1.1766 H   0  0  0  0  0  0  0  0  0 16  0  0
    0.7818    0.8378   -2.2110 H   0  0  0  0  0  0  0  0  0 17  0  0
    2.4295    0.1018   -1.0255 C   0  0  0  0  0  0  0  0  0 18  0  0
    3.2735    0.2748   -0.1887 O   0  0  0  0  0  0  0  0  0 19  0  0
    2.4169   -0.9259   -1.8524 O   0  0  0  0  0  0  0  0  0 20  0  0
    3.1598   -1.5295   -1.6698 H   0  0  0  0  0  0  0  0  0 21  0  0
    0.4818   -0.8134    2.5437 H   0  0  0  0  0  0  0  0  0 26  0  0
    1.6650   -0.9092    1.2746 H   0  0  0  0  0  0  0  0  0 27  0  0
    1.0114   -2.4251    1.9810 H   0  0  0  0  0  0  0  0  0 28  0  0
  1  2  1  0
  2  3  4  0
  3  4  1  0
  3  5  4  0
  5  6  1  0
  5  7  4  0
  7  8  1  0
  7  9  4  0
  9 10  1  0
  9 11  4  0
 11 12  1  0
 13 12  1  6
 13 14  2  0
 13 15  2  0
 13 16  1  0
 16 17  1  0
 16 18  1  0
 16 19  1  0
 12 20  1  0
 20 21  1  0
 20 22  1  0
 20 23  1  0
 23 24  2  0
 23 25  1  0
 25 26  1  0
  1 27  1  0
  1 28  1  0
  1 29  1  0
 11  2  4  0
M  END
>  <sample_id>  (414)
train::Cc1ccccc1N(CC(=O)O)S(C)(=O)=O__gen0002

>  <partition>  (414)
BAT_EXTERNAL_CONFIRM

>  <method>  (414)
BA_seed193

>  <candidate>  (414)
primary

$$$$
train::COC(=O)Cn1nc(-c2ccccc2)c2ccccc21__gen0000
     RDKit          3D

 34 36  0  0  0  0  0  0  0  0999 V2000
   -1.4059   -2.8534   -2.8805 C   0  0  0  0  0  0  0  0  0  0  0  0
   -0.9827   -2.2746   -3.6971 H   0  0  0  0  0  0  0  0  0  1  0  0
   -0.7097   -3.6446   -2.6015 H   0  0  0  0  0  0  0  0  0  2  0  0
   -2.3633   -3.2861   -3.2004 H   0  0  0  0  0  0  0  0  0  3  0  0
   -1.6119   -2.0101   -1.7672 O   0  0  0  0  0  0  0  0  0  4  0  0
   -2.8381   -1.7840   -1.3483 C   0  0  0  0  0  0  0  0  0  5  0  0
   -3.8434   -2.1979   -1.8727 O   0  0  0  0  0  0  0  0  0  6  0  0
   -2.8610   -0.8888   -0.0982 C   0  0  0  0  0  0  0  0  0  7  0  0
   -1.6369   -0.1493    0.0824 N   0  0  0  0  0  0  0  0  0  8  0  0
   -1.2091    0.9132   -0.6405 C   0  0  0  0  0  0  0  0  0  9  0  0
   -1.8187    1.6369   -1.6636 C   0  0  0  0  0  0  0  0  0 10  0  0
   -2.7977    1.3721   -2.0315 H   0  0  0  0  0  0  0  0  0 31  0  0
   -1.0920    2.6736   -2.2093 C   0  0  0  0  0  0  0  0  0 11  0  0
   -1.5138    3.2567   -3.0024 H   0  0  0  0  0  0  0  0  0 30  0  0
    0.1826    2.9800   -1.7337 C   0  0  0  0  0  0  0  0  0 12  0  0
    0.7285    3.8108   -2.1807 H   0  0  0  0  0  0  0  0  0 29  0  0
    0.7852    2.2832   -0.7007 C   0  0  0  0  0  0  0  0  0 13  0  0
    1.7839    2.5338   -0.3739 H   0  0  0  0  0  0  0  0  0 28  0  0
    0.0756    1.2242   -0.1222 C   0  0  0  0  0  0  0  0  0 14  0  0
    0.2994    0.2489    0.8814 C   0  0  0  0  0  0  0  0  0 15  0  0
    1.4670    0.0824    1.7334 C   0  0  0  0  0  0  0  0  0 17  0  0
    1.8155   -1.2014    2.1676 C   0  0  0  0  0  0  0  0  0 18  0  0
    1.1976   -2.0291    1.8638 H   0  0  0  0  0  0  0  0  0 27  0  0
    2.9261   -1.3824    2.9767 C   0  0  0  0  0  0  0  0  0 19  0  0
    3.1854   -2.3799    3.3067 H   0  0  0  0  0  0  0  0  0 26  0  0
    3.6953   -0.2979    3.3502 C   0  0  0  0  0  0  0  0  0 20  0  0
    4.5543   -0.4427    4.0026 H   0  0  0  0  0  0  0  0  0 25  0  0
    3.3321    0.9800    2.9655 C   0  0  0  0  0  0  0  0  0 21  0  0
    3.9217    1.8200    3.2653 H   0  0  0  0  0  0  0  0  0 24  0  0
    2.2392    1.1663    2.1364 C   0  0  0  0  0  0  0  0  0 22  0  0
    1.9514    2.1722    1.8522 H   0  0  0  0  0  0  0  0  0 23  0  0
   -0.7331   -0.5685    0.9625 N   0  0  0  0  0  0  0  0  0 16  0  0
   -3.7205   -0.2187   -0.1840 H   0  0  0  0  0  0  0  0  0 32  0  0
   -3.0029   -1.5450    0.7617 H   0  0  0  0  0  0  0  0  0 33  0  0
  1  2  1  0
  1  3  1  0
  1  4  1  0
  1  5  1  0
  5  6  1  0
  6  7  2  0
  6  8  1  0
  8  9  1  0
  9 10  4  0
 10 11  4  0
 11 12  1  0
 11 13  4  0
 13 14  1  0
 13 15  4  0
 15 16  1  0
 15 17  4  0
 17 18  1  0
 17 19  4  0
 19 20  4  0
 20 21  1  0
 21 22  4  0
 22 23  1  0
 22 24  4  0
 24 25  1  0
 24 26  4  0
 26 27  1  0
 26 28  4  0
 28 29  1  0
 28 30  4  0
 30 31  1  0
 20 32  4  0
  8 33  1  0
  8 34  1  0
 32  9  4  0
 19 10  4  0
 30 21  4  0
M  END
>  <sample_id>  (415)
train::COC(=O)Cn1nc(-c2ccccc2)c2ccccc21__gen0000

>  <partition>  (415)
BAT_EXTERNAL_CONFIRM

>  <method>  (415)
BA_seed193

>  <candidate>  (415)
primary

$$$$
train::COC(=O)Cn1nc(-c2ccccc2)c2ccccc21__gen0001
     RDKit          3D

 34 36  0  0  0  0  0  0  0  0999 V2000
   -0.6189    4.6471   -1.2689 C   0  0  0  0  0  0  0  0  0  0  0  0
    0.4337    4.4657   -1.5063 H   0  0  0  0  0  0  0  0  0  1  0  0
   -1.0909    5.1987   -2.0876 H   0  0  0  0  0  0  0  0  0  2  0  0
   -0.7212    5.1702   -0.3210 H   0  0  0  0  0  0  0  0  0  3  0  0
   -1.2883    3.3822   -1.0832 O   0  0  0  0  0  0  0  0  0  4  0  0
   -1.2528    2.5549   -2.1149 C   0  0  0  0  0  0  0  0  0  5  0  0
   -0.7465    2.7862   -3.1768 O   0  0  0  0  0  0  0  0  0  6  0  0
   -1.9268    1.2289   -1.7506 C   0  0  0  0  0  0  0  0  0  7  0  0
   -0.9938    0.3509   -1.0932 N   0  0  0  0  0  0  0  0  0  8  0  0
    0.1357   -0.2014   -1.5712 C   0  0  0  0  0  0  0  0  0  9  0  0
    0.7310   -0.1385   -2.8278 C   0  0  0  0  0  0  0  0  0 10  0  0
    0.3193    0.4753   -3.6149 H   0  0  0  0  0  0  0  0  0 31  0  0
    1.8876   -0.8739   -3.0128 C   0  0  0  0  0  0  0  0  0 11  0  0
    2.3841   -0.8389   -3.9720 H   0  0  0  0  0  0  0  0  0 30  0  0
    2.4330   -1.6498   -1.9954 C   0  0  0  0  0  0  0  0  0 12  0  0
    3.3228   -2.2186   -2.1906 H   0  0  0  0  0  0  0  0  0 29  0  0
    1.8448   -1.7106   -0.7486 C   0  0  0  0  0  0  0  0  0 13  0  0
    2.2652   -2.3415    0.0309 H   0  0  0  0  0  0  0  0  0 28  0  0
    0.6795   -0.9697   -0.5134 C   0  0  0  0  0  0  0  0  0 14  0  0
   -0.2089   -0.7587    0.5815 C   0  0  0  0  0  0  0  0  0 15  0  0
   -0.1542   -1.2982    1.9252 C   0  0  0  0  0  0  0  0  0 17  0  0
    1.0638   -1.5905    2.5498 C   0  0  0  0  0  0  0  0  0 18  0  0
    1.9841   -1.3879    2.0280 H   0  0  0  0  0  0  0  0  0 27  0  0
    1.0815   -2.1128    3.8223 C   0  0  0  0  0  0  0  0  0 19  0  0
    2.0315   -2.3209    4.2966 H   0  0  0  0  0  0  0  0  0 26  0  0
   -0.1053   -2.3424    4.5084 C   0  0  0  0  0  0  0  0  0 20  0  0
   -0.0745   -2.7308    5.5109 H   0  0  0  0  0  0  0  0  0 25  0  0
   -1.3106   -2.0217    3.9102 C   0  0  0  0  0  0  0  0  0 21  0  0
   -2.2337   -2.1843    4.4397 H   0  0  0  0  0  0  0  0  0 24  0  0
   -1.3446   -1.5176    2.6230 C   0  0  0  0  0  0  0  0  0 22  0  0
   -2.2766   -1.2691    2.1553 H   0  0  0  0  0  0  0  0  0 23  0  0
   -1.2016    0.0283    0.1884 N   0  0  0  0  0  0  0  0  0 16  0  0
   -2.3020    0.7639   -2.6677 H   0  0  0  0  0  0  0  0  0 32  0  0
   -2.7465    1.4255   -1.0533 H   0  0  0  0  0  0  0  0  0 33  0  0
  1  2  1  0
  1  3  1  0
  1  4  1  0
  1  5  1  0
  5  6  1  0
  6  7  2  0
  6  8  1  0
  8  9  1  0
  9 10  4  0
 10 11  4  0
 11 12  1  0
 11 13  4  0
 13 14  1  0
 13 15  4  0
 15 16  1  0
 15 17  4  0
 17 18  1  0
 17 19  4  0
 19 20  4  0
 20 21  1  0
 21 22  4  0
 22 23  1  0
 22 24  4  0
 24 25  1  0
 24 26  4  0
 26 27  1  0
 26 28  4  0
 28 29  1  0
 28 30  4  0
 30 31  1  0
 20 32  4  0
  8 33  1  0
  8 34  1  0
 32  9  4  0
 19 10  4  0
 30 21  4  0
M  END
>  <sample_id>  (416)
train::COC(=O)Cn1nc(-c2ccccc2)c2ccccc21__gen0001

>  <partition>  (416)
BAT_EXTERNAL_CONFIRM

>  <method>  (416)
BA_seed193

>  <candidate>  (416)
primary

$$$$
train::COC(=O)Cn1nc(-c2ccccc2)c2ccccc21__gen0002
     RDKit          3D

 34 36  0  0  0  0  0  0  0  0999 V2000
   -3.6299    2.1954   -1.0070 C   0  0  0  0  0  0  0  0  0  0  0  0
   -4.6389    1.8369   -0.8158 H   0  0  0  0  0  0  0  0  0  1  0  0
   -3.5960    3.2780   -0.8974 H   0  0  0  0  0  0  0  0  0  2  0  0
   -3.2983    1.9187   -2.0120 H   0  0  0  0  0  0  0  0  0  3  0  0
   -2.7028    1.5759   -0.1067 O   0  0  0  0  0  0  0  0  0  4  0  0
   -2.9293    1.7583    1.1870 C   0  0  0  0  0  0  0  0  0  5  0  0
   -3.8665    2.3781    1.6279 O   0  0  0  0  0  0  0  0  0  6  0  0
   -1.8796    1.0867    2.0500 C   0  0  0  0  0  0  0  0  0  7  0  0
   -0.9405    0.3177    1.2852 N   0  0  0  0  0  0  0  0  0  8  0  0
   -1.1478   -0.8808    0.6622 C   0  0  0  0  0  0  0  0  0  9  0  0
   -2.2603   -1.7069    0.6052 C   0  0  0  0  0  0  0  0  0 10  0  0
   -3.1705   -1.4531    1.1113 H   0  0  0  0  0  0  0  0  0 31  0  0
   -2.1499   -2.8552   -0.1465 C   0  0  0  0  0  0  0  0  0 11  0  0
   -2.9926   -3.5211   -0.2202 H   0  0  0  0  0  0  0  0  0 30  0  0
   -0.9685   -3.1723   -0.8258 C   0  0  0  0  0  0  0  0  0 12  0  0
   -0.9411   -4.0785   -1.4153 H   0  0  0  0  0  0  0  0  0 29  0  0
    0.1454   -2.3607   -0.7598 C   0  0  0  0  0  0  0  0  0 13  0  0
    1.0422   -2.6140   -1.3065 H   0  0  0  0  0  0  0  0  0 28  0  0
    0.0719   -1.1929   -0.0014 C   0  0  0  0  0  0  0  0  0 14  0  0
    0.9298   -0.1034    0.3090 C   0  0  0  0  0  0  0  0  0 15  0  0
    2.3142    0.1279   -0.0967 C   0  0  0  0  0  0  0  0  0 17  0  0
    3.1857   -0.9263   -0.3260 C   0  0  0  0  0  0  0  0  0 18  0  0
    2.8511   -1.9521   -0.1865 H   0  0  0  0  0  0  0  0  0 27  0  0
    4.4884   -0.6860   -0.7107 C   0  0  0  0  0  0  0  0  0 19  0  0
    5.1590   -1.5195   -0.8885 H   0  0  0  0  0  0  0  0  0 26  0  0
    4.9479    0.6167   -0.8499 C   0  0  0  0  0  0  0  0  0 20  0  0
    5.9723    0.8080   -1.1570 H   0  0  0  0  0  0  0  0  0 25  0  0
    4.0914    1.6766   -0.6059 C   0  0  0  0  0  0  0  0  0 21  0  0
    4.4421    2.6863   -0.7057 H   0  0  0  0  0  0  0  0  0 24  0  0
    2.7883    1.4249   -0.2102 C   0  0  0  0  0  0  0  0  0 22  0  0
    2.1027    2.2509   -0.0238 H   0  0  0  0  0  0  0  0  0 23  0  0
    0.2917    0.7774    1.0740 N   0  0  0  0  0  0  0  0  0 16  0  0
   -1.3166    1.8591    2.5815 H   0  0  0  0  0  0  0  0  0 32  0  0
   -2.3949    0.4494    2.7819 H   0  0  0  0  0  0  0  0  0 33  0  0
  1  2  1  0
  1  3  1  0
  1  4  1  0
  1  5  1  0
  5  6  1  0
  6  7  2  0
  6  8  1  0
  8  9  1  0
  9 10  4  0
 10 11  4  0
 11 12  1  0
 11 13  4  0
 13 14  1  0
 13 15  4  0
 15 16  1  0
 15 17  4  0
 17 18  1  0
 17 19  4  0
 19 20  4  0
 20 21  1  0
 21 22  4  0
 22 23  1  0
 22 24  4  0
 24 25  1  0
 24 26  4  0
 26 27  1  0
 26 28  4  0
 28 29  1  0
 28 30  4  0
 30 31  1  0
 20 32  4  0
  8 33  1  0
  8 34  1  0
 32  9  4  0
 19 10  4  0
 30 21  4  0
M  END
>  <sample_id>  (417)
train::COC(=O)Cn1nc(-c2ccccc2)c2ccccc21__gen0002

>  <partition>  (417)
BAT_EXTERNAL_CONFIRM

>  <method>  (417)
BA_seed193

>  <candidate>  (417)
primary

$$$$
train::COC(C(=O)N_N=C(\C)c1ccc(C(C)(C)C)cc1)c1ccccc1__gen0000
     RDKit          3D

 51 52  0  0  0  0  0  0  0  0999 V2000
   -3.2239   -4.9672   -1.4583 C   0  0  0  0  0  0  0  0  0  0  0  0
   -3.2706   -5.8057   -2.1515 H   0  0  0  0  0  0  0  0  0  1  0  0
   -2.4709   -3.9688   -2.1465 O   0  0  0  0  0  0  0  0  0  2  0  0
   -2.2804   -2.7494   -1.4781 C   0  0  2  0  0  0  0  0  0  3  0  0
   -1.4317   -2.9135   -0.2217 C   0  0  0  0  0  0  0  0  0  4  0  0
   -0.0504   -2.9029   -0.3354 C   0  0  0  0  0  0  0  0  0  5  0  0
    0.4037   -2.7380   -1.2994 H   0  0  0  0  0  0  0  0  0 14  0  0
    0.7359   -3.0828    0.7851 C   0  0  0  0  0  0  0  0  0  6  0  0
    1.8091   -3.0745    0.6940 H   0  0  0  0  0  0  0  0  0 13  0  0
    0.1508   -3.2824    2.0257 C   0  0  0  0  0  0  0  0  0  7  0  0
    0.7679   -3.4153    2.9052 H   0  0  0  0  0  0  0  0  0 12  0  0
   -1.2345   -3.3004    2.1397 C   0  0  0  0  0  0  0  0  0  8  0  0
   -1.7000   -3.4566    3.0989 H   0  0  0  0  0  0  0  0  0 11  0  0
   -2.0236   -3.1250    1.0158 C   0  0  0  0  0  0  0  0  0  9  0  0
   -3.1011   -3.1519    1.0947 H   0  0  0  0  0  0  0  0  0 10  0  0
   -3.5801   -1.9730   -1.1713 C   0  0  0  0  0  0  0  0  0 15  0  0
   -4.6985   -2.4373   -1.2524 O   0  0  0  0  0  0  0  0  0 16  0  0
   -3.3908   -0.7062   -0.7577 N   0  0  0  0  0  0  0  0  0 17  0  0
   -2.1752   -0.1314   -0.6184 N   0  0  0  0  0  0  0  0  0 18  0  0
   -2.0355    1.0702   -0.1968 C   0  0  0  0  0  0  0  0  0 19  0  0
   -0.6449    1.5284   -0.0989 C   0  0  0  0  0  0  0  0  0 20  0  0
    0.3889    0.6126    0.0585 C   0  0  0  0  0  0  0  0  0 21  0  0
    0.1505   -0.4351    0.1331 H   0  0  0  0  0  0  0  0  0 42  0  0
    1.7021    1.0313    0.1450 C   0  0  0  0  0  0  0  0  0 22  0  0
    2.4717    0.2834    0.2869 H   0  0  0  0  0  0  0  0  0 41  0  0
    2.0328    2.3792    0.0684 C   0  0  0  0  0  0  0  0  0 23  0  0
    3.4718    2.8788    0.1794 C   0  0  2  0  0  0  0  0  0 28  0  0
    3.8114    3.7277   -1.0551 C   0  0  0  0  0  0  0  0  0 29  0  0
    3.1895    4.6293   -1.0981 H   0  0  0  0  0  0  0  0  0 30  0  0
    4.8555    4.0488   -1.0212 H   0  0  0  0  0  0  0  0  0 31  0  0
    3.6592    3.1540   -1.9734 H   0  0  0  0  0  0  0  0  0 32  0  0
    4.4880    1.7331    0.2599 C   0  0  0  0  0  0  0  0  0 33  0  0
    4.4346    1.0971   -0.6187 H   0  0  0  0  0  0  0  0  0 34  0  0
    4.3215    1.1265    1.1436 H   0  0  0  0  0  0  0  0  0 35  0  0
    5.4956    2.1444    0.3160 H   0  0  0  0  0  0  0  0  0 36  0  0
    3.5970    3.7249    1.4517 C   0  0  0  0  0  0  0  0  0 37  0  0
    4.6169    4.0782    1.5625 H   0  0  0  0  0  0  0  0  0 38  0  0
    2.9263    4.5785    1.4075 H   0  0  0  0  0  0  0  0  0 39  0  0
    3.3404    3.1430    2.3262 H   0  0  0  0  0  0  0  0  0 40  0  0
    0.9969    3.2923   -0.0998 C   0  0  0  0  0  0  0  0  0 24  0  0
    1.2077    4.3532   -0.1433 H   0  0  0  0  0  0  0  0  0 27  0  0
   -0.3141    2.8787   -0.1752 C   0  0  0  0  0  0  0  0  0 25  0  0
   -1.0946    3.6097   -0.3147 H   0  0  0  0  0  0  0  0  0 26  0  0
   -3.1336    2.0028    0.1955 C   0  0  0  0  0  0  0  0  0 43  0  0
   -2.8322    2.6048    1.0501 H   0  0  0  0  0  0  0  0  0 44  0  0
   -3.3844    2.6612   -0.6366 H   0  0  0  0  0  0  0  0  0 45  0  0
   -4.0279    1.4484    0.4710 H   0  0  0  0  0  0  0  0  0 46  0  0
   -4.2348   -0.1726   -0.5233 H   0  0  0  0  0  0  0  0  0 47  0  0
   -1.7288   -2.1364   -2.1951 H   0  0  0  0  0  0  0  0  0 48  0  0
   -2.7277   -5.2807   -0.5330 H   0  0  0  0  0  0  0  0  0 49  0  0
   -4.2356   -4.6133   -1.2403 H   0  0  0  0  0  0  0  0  0 50  0  0
  1  2  1  0
  1  3  1  0
  3  4  1  0
  4  5  1  0
  5  6  4  0
  6  7  1  0
  6  8  4  0
  8  9  1  0
  8 10  4  0
 10 11  1  0
 10 12  4  0
 12 13  1  0
 12 14  4  0
 14 15  1  0
  4 16  1  0
 16 17  2  0
 16 18  1  0
 18 19  1  0
 19 20  2  0
 20 21  1  0
 21 22  4  0
 22 23  1  0
 22 24  4  0
 24 25  1  0
 24 26  4  0
 26 27  1  0
 27 28  1  6
 28 29  1  0
 28 30  1  0
 28 31  1  0
 27 32  1  0
 32 33  1  0
 32 34  1  0
 32 35  1  0
 27 36  1  0
 36 37  1  0
 36 38  1  0
 36 39  1  0
 26 40  4  0
 40 41  1  0
 40 42  4  0
 42 43  1  0
 20 44  1  0
 44 45  1  0
 44 46  1  0
 44 47  1  0
 18 48  1  0
  4 49  1  6
  1 50  1  0
  1 51  1  0
 14  5  4  0
 42 21  4  0
M  END
>  <sample_id>  (418)
train::COC(C(=O)N_N=C(\C)c1ccc(C(C)(C)C)cc1)c1ccccc1__gen0000

>  <partition>  (418)
BAT_EXTERNAL_CONFIRM

>  <method>  (418)
BA_seed193

>  <candidate>  (418)
primary

$$$$
train::COC(C(=O)N_N=C(\C)c1ccc(C(C)(C)C)cc1)c1ccccc1__gen0001
     RDKit          3D

 51 52  0  0  0  0  0  0  0  0999 V2000
   -3.6448    1.6049   -3.8225 C   0  0  0  0  0  0  0  0  0  0  0  0
   -3.0759    0.7586   -4.2132 H   0  0  0  0  0  0  0  0  0  1  0  0
   -4.3134    1.2803   -2.6076 O   0  0  0  0  0  0  0  0  0  2  0  0
   -3.4584    0.9241   -1.5638 C   0  0  2  0  0  0  0  0  0  3  0  0
   -2.6088   -0.3042   -1.8398 C   0  0  0  0  0  0  0  0  0  4  0  0
   -3.2244   -1.5421   -1.9925 C   0  0  0  0  0  0  0  0  0  5  0  0
   -4.3060   -1.6134   -1.9273 H   0  0  0  0  0  0  0  0  0 14  0  0
   -2.4524   -2.6730   -2.2481 C   0  0  0  0  0  0  0  0  0  6  0  0
   -2.9411   -3.6290   -2.3590 H   0  0  0  0  0  0  0  0  0 13  0  0
   -1.0708   -2.5721   -2.3216 C   0  0  0  0  0  0  0  0  0  7  0  0
   -0.4839   -3.4590   -2.4892 H   0  0  0  0  0  0  0  0  0 12  0  0
   -0.4630   -1.3358   -2.1725 C   0  0  0  0  0  0  0  0  0  8  0  0
    0.6141   -1.2565   -2.2323 H   0  0  0  0  0  0  0  0  0 11  0  0
   -1.2233   -0.2171   -1.9339 C   0  0  0  0  0  0  0  0  0  9  0  0
   -0.7531    0.7484   -1.8254 H   0  0  0  0  0  0  0  0  0 10  0  0
   -4.3173    0.6213   -0.3347 C   0  0  0  0  0  0  0  0  0 15  0  0
   -5.5346    0.5837   -0.3251 O   0  0  0  0  0  0  0  0  0 16  0  0
   -3.6009    0.3889    0.8063 N   0  0  0  0  0  0  0  0  0 17  0  0
   -2.2666    0.4358    0.8358 N   0  0  0  0  0  0  0  0  0 18  0  0
   -1.5729    0.0399    1.8345 C   0  0  0  0  0  0  0  0  0 19  0  0
   -0.1302    0.1220    1.6936 C   0  0  0  0  0  0  0  0  0 20  0  0
    0.7390   -0.7737    2.3196 C   0  0  0  0  0  0  0  0  0 21  0  0
    0.3298   -1.5484    2.9513 H   0  0  0  0  0  0  0  0  0 42  0  0
    2.1011   -0.7012    2.1093 C   0  0  0  0  0  0  0  0  0 22  0  0
    2.7205   -1.4154    2.6280 H   0  0  0  0  0  0  0  0  0 41  0  0
    2.6658    0.2648    1.2878 C   0  0  0  0  0  0  0  0  0 23  0  0
    4.1661    0.3684    1.0407 C   0  0  2  0  0  0  0  0  0 28  0  0
    4.4293    0.2436   -0.4583 C   0  0  0  0  0  0  0  0  0 29  0  0
    3.9479    1.0440   -1.0129 H   0  0  0  0  0  0  0  0  0 30  0  0
    4.0436   -0.6975   -0.8346 H   0  0  0  0  0  0  0  0  0 31  0  0
    5.5037    0.2732   -0.6503 H   0  0  0  0  0  0  0  0  0 32  0  0
    4.9436   -0.7249    1.7727 C   0  0  0  0  0  0  0  0  0 33  0  0
    6.0097   -0.5904    1.5646 H   0  0  0  0  0  0  0  0  0 34  0  0
    4.8060   -0.6567    2.8518 H   0  0  0  0  0  0  0  0  0 35  0  0
    4.6529   -1.7098    1.4294 H   0  0  0  0  0  0  0  0  0 36  0  0
    4.6434    1.7313    1.5443 C   0  0  0  0  0  0  0  0  0 37  0  0
    4.4480    1.8488    2.6000 H   0  0  0  0  0  0  0  0  0 38  0  0
    5.7201    1.8286    1.3863 H   0  0  0  0  0  0  0  0  0 39  0  0
    4.1473    2.5546    1.0269 H   0  0  0  0  0  0  0  0  0 40  0  0
    1.7971    1.1608    0.6743 C   0  0  0  0  0  0  0  0  0 24  0  0
    2.1919    1.9360    0.0338 H   0  0  0  0  0  0  0  0  0 27  0  0
    0.4296    1.0919    0.8543 C   0  0  0  0  0  0  0  0  0 25  0  0
   -0.2173    1.8089    0.3758 H   0  0  0  0  0  0  0  0  0 26  0  0
   -2.1536   -0.5116    3.1133 C   0  0  0  0  0  0  0  0  0 43  0  0
   -1.4419   -0.4150    3.9274 H   0  0  0  0  0  0  0  0  0 44  0  0
   -2.3959   -1.5660    2.9928 H   0  0  0  0  0  0  0  0  0 45  0  0
   -3.0686    0.0081    3.3971 H   0  0  0  0  0  0  0  0  0 46  0  0
   -4.1617    0.1272    1.6206 H   0  0  0  0  0  0  0  0  0 47  0  0
   -2.7853    1.7634   -1.3080 H   0  0  0  0  0  0  0  0  0 48  0  0
   -2.9631    2.4598   -3.6783 H   0  0  0  0  0  0  0  0  0 49  0  0
   -4.4213    1.8913   -4.5213 H   0  0  0  0  0  0  0  0  0 50  0  0
  1  2  1  0
  1  3  1  0
  3  4  1  0
  4  5  1  0
  5  6  4  0
  6  7  1  0
  6  8  4  0
  8  9  1  0
  8 10  4  0
 10 11  1  0
 10 12  4  0
 12 13  1  0
 12 14  4  0
 14 15  1  0
  4 16  1  0
 16 17  2  0
 16 18  1  0
 18 19  1  0
 19 20  2  0
 20 21  1  0
 21 22  4  0
 22 23  1  0
 22 24  4  0
 24 25  1  0
 24 26  4  0
 26 27  1  0
 27 28  1  6
 28 29  1  0
 28 30  1  0
 28 31  1  0
 27 32  1  0
 32 33  1  0
 32 34  1  0
 32 35  1  0
 27 36  1  0
 36 37  1  0
 36 38  1  0
 36 39  1  0
 26 40  4  0
 40 41  1  0
 40 42  4  0
 42 43  1  0
 20 44  1  0
 44 45  1  0
 44 46  1  0
 44 47  1  0
 18 48  1  0
  4 49  1  1
  1 50  1  0
  1 51  1  0
 14  5  4  0
 42 21  4  0
M  END
>  <sample_id>  (419)
train::COC(C(=O)N_N=C(\C)c1ccc(C(C)(C)C)cc1)c1ccccc1__gen0001

>  <partition>  (419)
BAT_EXTERNAL_CONFIRM

>  <method>  (419)
BA_seed193

>  <candidate>  (419)
primary

$$$$
train::COC(C(=O)N_N=C(\C)c1ccc(C(C)(C)C)cc1)c1ccccc1__gen0002
     RDKit          3D

 51 52  0  0  0  0  0  0  0  0999 V2000
   -1.4135   -1.8635    0.9380 C   0  0  0  0  0  0  0  0  0  0  0  0
   -1.7558   -2.7173    1.5420 H   0  0  0  0  0  0  0  0  0  1  0  0
   -0.8266   -2.3028   -0.2629 O   0  0  0  0  0  0  0  0  0  2  0  0
    0.1632   -3.2882   -0.0775 C   0  0  1  0  0  0  0  0  0  3  0  0
   -0.5023   -4.6336    0.1126 C   0  0  0  0  0  0  0  0  0  4  0  0
   -1.4029   -5.0842   -0.8415 C   0  0  0  0  0  0  0  0  0  5  0  0
   -1.6351   -4.4302   -1.6679 H   0  0  0  0  0  0  0  0  0 14  0  0
   -2.0146   -6.3169   -0.6993 C   0  0  0  0  0  0  0  0  0  6  0  0
   -2.7245   -6.6537   -1.4324 H   0  0  0  0  0  0  0  0  0 13  0  0
   -1.6770   -7.1307    0.3756 C   0  0  0  0  0  0  0  0  0  7  0  0
   -2.1383   -8.1035    0.4810 H   0  0  0  0  0  0  0  0  0 12  0  0
   -0.7593   -6.6950    1.3210 C   0  0  0  0  0  0  0  0  0  8  0  0
   -0.5229   -7.3243    2.1694 H   0  0  0  0  0  0  0  0  0 11  0  0
   -0.1595   -5.4535    1.1804 C   0  0  0  0  0  0  0  0  0  9  0  0
    0.5592   -5.1230    1.9066 H   0  0  0  0  0  0  0  0  0 10  0  0
    1.0859   -3.3345   -1.2820 C   0  0  0  0  0  0  0  0  0 15  0  0
    1.4208   -4.3665   -1.8273 O   0  0  0  0  0  0  0  0  0 16  0  0
    1.5803   -2.1501   -1.7168 N   0  0  0  0  0  0  0  0  0 17  0  0
    1.2345   -0.9548   -1.1716 N   0  0  0  0  0  0  0  0  0 18  0  0
    1.7023    0.1540   -1.6106 C   0  0  0  0  0  0  0  0  0 19  0  0
    1.2122    1.3643   -0.9312 C   0  0  0  0  0  0  0  0  0 20  0  0
   -0.0614    1.3544   -0.3551 C   0  0  0  0  0  0  0  0  0 21  0  0
   -0.6308    0.4451   -0.4227 H   0  0  0  0  0  0  0  0  0 42  0  0
   -0.5697    2.4730    0.2744 C   0  0  0  0  0  0  0  0  0 22  0  0
   -1.5469    2.4374    0.7009 H   0  0  0  0  0  0  0  0  0 41  0  0
    0.1775    3.6543    0.3440 C   0  0  0  0  0  0  0  0  0 23  0  0
   -0.4314    4.8654    1.0300 C   0  0  2  0  0  0  0  0  0 28  0  0
    0.4994    6.0797    1.0191 C   0  0  0  0  0  0  0  0  0 29  0  0
    0.0115    6.9128    1.5205 H   0  0  0  0  0  0  0  0  0 30  0  0
    1.4270    5.8617    1.5429 H   0  0  0  0  0  0  0  0  0 31  0  0
    0.7312    6.3889    0.0043 H   0  0  0  0  0  0  0  0  0 32  0  0
   -0.7412    4.5099    2.4889 C   0  0  0  0  0  0  0  0  0 33  0  0
   -1.4536    3.6933    2.5526 H   0  0  0  0  0  0  0  0  0 34  0  0
   -1.1643    5.3713    2.9957 H   0  0  0  0  0  0  0  0  0 35  0  0
    0.1778    4.2273    3.0002 H   0  0  0  0  0  0  0  0  0 36  0  0
   -1.7191    5.2375    0.3009 C   0  0  0  0  0  0  0  0  0 37  0  0
   -2.4522    4.4391    0.3359 H   0  0  0  0  0  0  0  0  0 38  0  0
   -1.5314    5.4765   -0.7471 H   0  0  0  0  0  0  0  0  0 39  0  0
   -2.1761    6.1265    0.7632 H   0  0  0  0  0  0  0  0  0 40  0  0
    1.4488    3.6537   -0.2253 C   0  0  0  0  0  0  0  0  0 24  0  0
    2.0549    4.5416   -0.1987 H   0  0  0  0  0  0  0  0  0 27  0  0
    1.9567    2.5370   -0.8405 C   0  0  0  0  0  0  0  0  0 25  0  0
    2.9473    2.5547   -1.2875 H   0  0  0  0  0  0  0  0  0 26  0  0
    2.6914    0.3030   -2.7217 C   0  0  0  0  0  0  0  0  0 43  0  0
    2.4943   -0.4170   -3.5196 H   0  0  0  0  0  0  0  0  0 44  0  0
    3.7134    0.1424   -2.3807 H   0  0  0  0  0  0  0  0  0 45  0  0
    2.6346    1.2942   -3.1608 H   0  0  0  0  0  0  0  0  0 46  0  0
    2.2372   -2.1776   -2.5056 H   0  0  0  0  0  0  0  0  0 47  0  0
    0.8058   -3.0689    0.7811 H   0  0  0  0  0  0  0  0  0 48  0  0
   -0.6942   -1.2640    1.5197 H   0  0  0  0  0  0  0  0  0 49  0  0
   -2.2627   -1.2454    0.6854 H   0  0  0  0  0  0  0  0  0 50  0  0
  1  2  1  0
  1  3  1  0
  3  4  1  0
  4  5  1  0
  5  6  4  0
  6  7  1  0
  6  8  4  0
  8  9  1  0
  8 10  4  0
 10 11  1  0
 10 12  4  0
 12 13  1  0
 12 14  4  0
 14 15  1  0
  4 16  1  0
 16 17  2  0
 16 18  1  0
 18 19  1  0
 19 20  2  0
 20 21  1  0
 21 22  4  0
 22 23  1  0
 22 24  4  0
 24 25  1  0
 24 26  4  0
 26 27  1  0
 27 28  1  1
 28 29  1  0
 28 30  1  0
 28 31  1  0
 27 32  1  0
 32 33  1  0
 32 34  1  0
 32 35  1  0
 27 36  1  0
 36 37  1  0
 36 38  1  0
 36 39  1  0
 26 40  4  0
 40 41  1  0
 40 42  4  0
 42 43  1  0
 20 44  1  0
 44 45  1  0
 44 46  1  0
 44 47  1  0
 18 48  1  0
  4 49  1  6
  1 50  1  0
  1 51  1  0
 14  5  4  0
 42 21  4  0
M  END
>  <sample_id>  (420)
train::COC(C(=O)N_N=C(\C)c1ccc(C(C)(C)C)cc1)c1ccccc1__gen0002

>  <partition>  (420)
BAT_EXTERNAL_CONFIRM

>  <method>  (420)
BA_seed193

>  <candidate>  (420)
primary

$$$$
train::O=Cc1ccc(OCC(=O)NC(=O)NC2CCCCC2)cc1__gen0000
     RDKit          3D

 42 43  0  0  0  0  0  0  0  0999 V2000
   -0.3265   -4.9655   -7.6769 O   0  0  0  0  0  0  0  0  0  0  0  0
    0.2822   -5.0884   -6.6466 C   0  0  0  0  0  0  0  0  0  1  0  0
    0.1833   -4.1921   -5.4993 C   0  0  0  0  0  0  0  0  0  2  0  0
    0.9431   -4.4126   -4.3430 C   0  0  0  0  0  0  0  0  0  3  0  0
    1.6019   -5.2740   -4.2907 H   0  0  0  0  0  0  0  0  0 40  0  0
    0.8425   -3.5626   -3.2640 C   0  0  0  0  0  0  0  0  0  4  0  0
    1.4234   -3.7309   -2.3729 H   0  0  0  0  0  0  0  0  0 39  0  0
   -0.0078   -2.4586   -3.3220 C   0  0  0  0  0  0  0  0  0  5  0  0
   -0.0193   -1.6640   -2.1898 O   0  0  0  0  0  0  0  0  0 10  0  0
   -0.8569   -0.5393   -2.1741 C   0  0  0  0  0  0  0  0  0 11  0  0
   -0.6912    0.1952   -0.8555 C   0  0  0  0  0  0  0  0  0 12  0  0
   -1.3531    1.1822   -0.6213 O   0  0  0  0  0  0  0  0  0 13  0  0
    0.2222   -0.3445   -0.0281 N   0  0  0  0  0  0  0  0  0 14  0  0
    0.6454    0.0988    1.2738 C   0  0  0  0  0  0  0  0  0 15  0  0
    1.4988   -0.5368    1.8565 O   0  0  0  0  0  0  0  0  0 16  0  0
    0.0214    1.1980    1.7328 N   0  0  0  0  0  0  0  0  0 17  0  0
   -0.6782    1.6233    1.1196 H   0  0  0  0  0  0  0  0  0 18  0  0
    0.2975    1.8075    3.0112 C   0  0  1  0  0  0  0  0  0 19  0  0
    1.0672    1.1872    3.4926 H   0  0  0  0  0  0  0  0  0 35  0  0
    0.8087    3.2259    2.8124 C   0  0  0  0  0  0  0  0  0 20  0  0
    1.7214    3.2115    2.2091 H   0  0  0  0  0  0  0  0  0 33  0  0
    0.0624    3.8193    2.2920 H   0  0  0  0  0  0  0  0  0 34  0  0
    1.1034    3.8857    4.1713 C   0  0  0  0  0  0  0  0  0 21  0  0
    1.4577    4.8965    4.0214 H   0  0  0  0  0  0  0  0  0 31  0  0
    1.8987    3.3125    4.6777 H   0  0  0  0  0  0  0  0  0 32  0  0
   -0.1487    3.8805    5.0369 C   0  0  0  0  0  0  0  0  0 22  0  0
    0.0733    4.3250    6.0097 H   0  0  0  0  0  0  0  0  0 29  0  0
   -0.9232    4.4881    4.5621 H   0  0  0  0  0  0  0  0  0 30  0  0
   -0.6721    2.4627    5.2259 C   0  0  0  0  0  0  0  0  0 23  0  0
   -1.5894    2.4843    5.8320 H   0  0  0  0  0  0  0  0  0 27  0  0
    0.0749    1.8679    5.7555 H   0  0  0  0  0  0  0  0  0 28  0  0
   -0.9667    1.8238    3.8698 C   0  0  0  0  0  0  0  0  0 24  0  0
   -1.3313    0.7919    4.0127 H   0  0  0  0  0  0  0  0  0 25  0  0
   -1.7442    2.3773    3.3589 H   0  0  0  0  0  0  0  0  0 26  0  0
    0.7019   -1.1640   -0.3281 H   0  0  0  0  0  0  0  0  0 36  0  0
   -1.9108   -0.8119   -2.2775 H   0  0  0  0  0  0  0  0  0 37  0  0
   -0.6204    0.1607   -2.9781 H   0  0  0  0  0  0  0  0  0 38  0  0
   -0.7664   -2.2238   -4.4731 C   0  0  0  0  0  0  0  0  0  6  0  0
   -1.4211   -1.3823   -4.5296 H   0  0  0  0  0  0  0  0  0  9  0  0
   -0.6556   -3.0874   -5.5451 C   0  0  0  0  0  0  0  0  0  7  0  0
   -1.2351   -2.9202   -6.4377 H   0  0  0  0  0  0  0  0  0  8  0  0
    0.9865   -5.9469   -6.4808 H   0  0  0  0  0  0  0  0  0 41  0  0
  1  2  2  0
  2  3  1  0
  3  4  4  0
  4  5  1  0
  4  6  4  0
  6  7  1  0
  6  8  4  0
  8  9  1  0
  9 10  1  0
 10 11  1  0
 11 12  2  0
 11 13  1  0
 13 14  1  0
 14 15  2  0
 14 16  1  0
 16 17  1  0
 16 18  1  0
 18 19  1  1
 18 20  1  0
 20 21  1  0
 20 22  1  0
 20 23  1  0
 23 24  1  0
 23 25  1  0
 23 26  1  0
 26 27  1  0
 26 28  1  0
 26 29  1  0
 29 30  1  0
 29 31  1  0
 29 32  1  0
 32 33  1  0
 32 34  1  0
 13 35  1  0
 10 36  1  0
 10 37  1  0
  8 38  4  0
 38 39  1  0
 38 40  4  0
 40 41  1  0
  2 42  1  0
 40  3  4  0
 32 18  1  0
M  END
>  <sample_id>  (421)
train::O=Cc1ccc(OCC(=O)NC(=O)NC2CCCCC2)cc1__gen0000

>  <partition>  (421)
BAT_EXTERNAL_CONFIRM

>  <method>  (421)
BA_seed193

>  <candidate>  (421)
primary

$$$$
train::O=Cc1ccc(OCC(=O)NC(=O)NC2CCCCC2)cc1__gen0001
     RDKit          3D

 42 43  0  0  0  0  0  0  0  0999 V2000
   -0.9707    4.1423    3.2431 O   0  0  0  0  0  0  0  0  0  0  0  0
    0.1911    3.8913    3.3700 C   0  0  0  0  0  0  0  0  0  1  0  0
    0.8187    2.5819    3.1270 C   0  0  0  0  0  0  0  0  0  2  0  0
    0.0318    1.5034    2.7429 C   0  0  0  0  0  0  0  0  0  3  0  0
   -1.0378    1.6484    2.6296 H   0  0  0  0  0  0  0  0  0 40  0  0
    0.5942    0.2631    2.5056 C   0  0  0  0  0  0  0  0  0  4  0  0
   -0.0447   -0.5515    2.2118 H   0  0  0  0  0  0  0  0  0 39  0  0
    1.9743    0.0848    2.6526 C   0  0  0  0  0  0  0  0  0  5  0  0
    2.6300   -1.0714    2.4295 O   0  0  0  0  0  0  0  0  0 10  0  0
    1.9022   -2.2196    2.0792 C   0  0  0  0  0  0  0  0  0 11  0  0
    1.2072   -2.1008    0.7219 C   0  0  0  0  0  0  0  0  0 12  0  0
    0.1589   -2.6825    0.4892 O   0  0  0  0  0  0  0  0  0 13  0  0
    1.8464   -1.2879   -0.1503 N   0  0  0  0  0  0  0  0  0 14  0  0
    1.4214   -0.8125   -1.4240 C   0  0  0  0  0  0  0  0  0 15  0  0
    2.1149   -0.0092   -1.9986 O   0  0  0  0  0  0  0  0  0 16  0  0
    0.2462   -1.3144   -1.8289 N   0  0  0  0  0  0  0  0  0 17  0  0
   -0.2274   -1.9562   -1.2123 H   0  0  0  0  0  0  0  0  0 18  0  0
   -0.4453   -0.8542   -3.0190 C   0  0  1  0  0  0  0  0  0 19  0  0
    0.2372   -0.9887   -3.8713 H   0  0  0  0  0  0  0  0  0 35  0  0
   -1.7073   -1.7028   -3.2213 C   0  0  0  0  0  0  0  0  0 20  0  0
   -1.4303   -2.7621   -3.2313 H   0  0  0  0  0  0  0  0  0 33  0  0
   -2.1450   -1.4638   -4.1887 H   0  0  0  0  0  0  0  0  0 34  0  0
   -2.7278   -1.4446   -2.1138 C   0  0  0  0  0  0  0  0  0 21  0  0
   -3.6340   -2.0231   -2.3222 H   0  0  0  0  0  0  0  0  0 31  0  0
   -2.3343   -1.7691   -1.1520 H   0  0  0  0  0  0  0  0  0 32  0  0
   -3.0833    0.0399   -2.0516 C   0  0  0  0  0  0  0  0  0 22  0  0
   -3.7949    0.2216   -1.2430 H   0  0  0  0  0  0  0  0  0 29  0  0
   -3.5468    0.3461   -2.9908 H   0  0  0  0  0  0  0  0  0 30  0  0
   -1.8272    0.8739   -1.8150 C   0  0  0  0  0  0  0  0  0 23  0  0
   -2.0788    1.9421   -1.7784 H   0  0  0  0  0  0  0  0  0 27  0  0
   -1.3976    0.6069   -0.8501 H   0  0  0  0  0  0  0  0  0 28  0  0
   -0.8133    0.6267   -2.9213 C   0  0  0  0  0  0  0  0  0 24  0  0
    0.0954    1.2088   -2.7497 H   0  0  0  0  0  0  0  0  0 25  0  0
   -1.2315    0.9450   -3.8751 H   0  0  0  0  0  0  0  0  0 26  0  0
    2.7254   -0.8917    0.1436 H   0  0  0  0  0  0  0  0  0 36  0  0
    1.1587   -2.4812    2.8343 H   0  0  0  0  0  0  0  0  0 37  0  0
    2.6405   -3.0323    2.0113 H   0  0  0  0  0  0  0  0  0 38  0  0
    2.7554    1.1701    3.0697 C   0  0  0  0  0  0  0  0  0  6  0  0
    3.8190    1.0178    3.1682 H   0  0  0  0  0  0  0  0  0  9  0  0
    2.1914    2.4001    3.2879 C   0  0  0  0  0  0  0  0  0  7  0  0
    2.8005    3.2376    3.6008 H   0  0  0  0  0  0  0  0  0  8  0  0
    0.9174    4.6679    3.6905 H   0  0  0  0  0  0  0  0  0 41  0  0
  1  2  2  0
  2  3  1  0
  3  4  4  0
  4  5  1  0
  4  6  4  0
  6  7  1  0
  6  8  4  0
  8  9  1  0
  9 10  1  0
 10 11  1  0
 11 12  2  0
 11 13  1  0
 13 14  1  0
 14 15  2  0
 14 16  1  0
 16 17  1  0
 16 18  1  0
 18 19  1  6
 18 20  1  0
 20 21  1  0
 20 22  1  0
 20 23  1  0
 23 24  1  0
 23 25  1  0
 23 26  1  0
 26 27  1  0
 26 28  1  0
 26 29  1  0
 29 30  1  0
 29 31  1  0
 29 32  1  0
 32 33  1  0
 32 34  1  0
 13 35  1  0
 10 36  1  0
 10 37  1  0
  8 38  4  0
 38 39  1  0
 38 40  4  0
 40 41  1  0
  2 42  1  0
 40  3  4  0
 32 18  1  0
M  END
>  <sample_id>  (422)
train::O=Cc1ccc(OCC(=O)NC(=O)NC2CCCCC2)cc1__gen0001

>  <partition>  (422)
BAT_EXTERNAL_CONFIRM

>  <method>  (422)
BA_seed193

>  <candidate>  (422)
primary

$$$$
train::O=Cc1ccc(OCC(=O)NC(=O)NC2CCCCC2)cc1__gen0002
     RDKit          3D

 42 43  0  0  0  0  0  0  0  0999 V2000
   -0.4374    2.2332   -5.6514 O   0  0  0  0  0  0  0  0  0  0  0  0
   -0.5671    3.1512   -4.8878 C   0  0  0  0  0  0  0  0  0  1  0  0
   -1.0340    3.0472   -3.5161 C   0  0  0  0  0  0  0  0  0  2  0  0
   -1.1543    4.1911   -2.7179 C   0  0  0  0  0  0  0  0  0  3  0  0
   -0.8977    5.1544   -3.1208 H   0  0  0  0  0  0  0  0  0 40  0  0
   -1.6099    4.0781   -1.4137 C   0  0  0  0  0  0  0  0  0  4  0  0
   -1.7005    4.9598   -0.7948 H   0  0  0  0  0  0  0  0  0 39  0  0
   -1.9368    2.8383   -0.8806 C   0  0  0  0  0  0  0  0  0  5  0  0
   -2.3669    2.8404    0.4221 O   0  0  0  0  0  0  0  0  0 10  0  0
   -2.7887    1.6521    1.0020 C   0  0  0  0  0  0  0  0  0 11  0  0
   -1.6446    0.6233    1.2168 C   0  0  0  0  0  0  0  0  0 12  0  0
   -1.8503   -0.5700    1.1722 O   0  0  0  0  0  0  0  0  0 13  0  0
   -0.4524    1.2281    1.4496 N   0  0  0  0  0  0  0  0  0 14  0  0
    0.8253    0.6177    1.7011 C   0  0  0  0  0  0  0  0  0 15  0  0
    1.7581    1.3536    1.9151 O   0  0  0  0  0  0  0  0  0 16  0  0
    0.8078   -0.7015    1.6687 N   0  0  0  0  0  0  0  0  0 17  0  0
   -0.0514   -1.1808    1.4418 H   0  0  0  0  0  0  0  0  0 18  0  0
    2.0130   -1.4950    1.8406 C   0  0  1  0  0  0  0  0  0 19  0  0
    2.7555   -0.8330    2.2991 H   0  0  0  0  0  0  0  0  0 35  0  0
    1.7350   -2.6803    2.7686 C   0  0  0  0  0  0  0  0  0 20  0  0
    1.2886   -2.3114    3.6997 H   0  0  0  0  0  0  0  0  0 33  0  0
    2.6787   -3.1605    3.0091 H   0  0  0  0  0  0  0  0  0 34  0  0
    0.8002   -3.7038    2.1135 C   0  0  0  0  0  0  0  0  0 21  0  0
   -0.1907   -3.2558    1.9425 H   0  0  0  0  0  0  0  0  0 31  0  0
    0.6597   -4.5491    2.7912 H   0  0  0  0  0  0  0  0  0 32  0  0
    1.3794   -4.1792    0.7776 C   0  0  0  0  0  0  0  0  0 22  0  0
    0.6870   -4.8888    0.3191 H   0  0  0  0  0  0  0  0  0 29  0  0
    2.3229   -4.6921    0.9761 H   0  0  0  0  0  0  0  0  0 30  0  0
    1.6036   -2.9966   -0.1493 C   0  0  0  0  0  0  0  0  0 23  0  0
    2.0358   -3.3484   -1.0882 H   0  0  0  0  0  0  0  0  0 27  0  0
    0.6512   -2.5133   -0.3841 H   0  0  0  0  0  0  0  0  0 28  0  0
    2.5536   -1.9883    0.4891 C   0  0  0  0  0  0  0  0  0 24  0  0
    2.6932   -1.1304   -0.1747 H   0  0  0  0  0  0  0  0  0 25  0  0
    3.5218   -2.4556    0.6581 H   0  0  0  0  0  0  0  0  0 26  0  0
   -0.4246    2.2390    1.4513 H   0  0  0  0  0  0  0  0  0 36  0  0
   -3.1932    1.9072    1.9732 H   0  0  0  0  0  0  0  0  0 37  0  0
   -3.5865    1.1656    0.4145 H   0  0  0  0  0  0  0  0  0 38  0  0
   -1.8265    1.6990   -1.6779 C   0  0  0  0  0  0  0  0  0  6  0  0
   -2.0754    0.7200   -1.2783 H   0  0  0  0  0  0  0  0  0  9  0  0
   -1.3831    1.8113   -2.9788 C   0  0  0  0  0  0  0  0  0  7  0  0
   -1.2840    0.9402   -3.6007 H   0  0  0  0  0  0  0  0  0  8  0  0
   -0.3143    4.1833   -5.1976 H   0  0  0  0  0  0  0  0  0 41  0  0
  1  2  2  0
  2  3  1  0
  3  4  4  0
  4  5  1  0
  4  6  4  0
  6  7  1  0
  6  8  4  0
  8  9  1  0
  9 10  1  0
 10 11  1  0
 11 12  2  0
 11 13  1  0
 13 14  1  0
 14 15  2  0
 14 16  1  0
 16 17  1  0
 16 18  1  0
 18 19  1  1
 18 20  1  0
 20 21  1  0
 20 22  1  0
 20 23  1  0
 23 24  1  0
 23 25  1  0
 23 26  1  0
 26 27  1  0
 26 28  1  0
 26 29  1  0
 29 30  1  0
 29 31  1  0
 29 32  1  0
 32 33  1  0
 32 34  1  0
 13 35  1  0
 10 36  1  0
 10 37  1  0
  8 38  4  0
 38 39  1  0
 38 40  4  0
 40 41  1  0
  2 42  1  0
 40  3  4  0
 32 18  1  0
M  END
>  <sample_id>  (423)
train::O=Cc1ccc(OCC(=O)NC(=O)NC2CCCCC2)cc1__gen0002

>  <partition>  (423)
BAT_EXTERNAL_CONFIRM

>  <method>  (423)
BA_seed193

>  <candidate>  (423)
primary

$$$$
train::CC(C)CNC(=O)CSc1nnc(CN2CCCCCC2=O)n1-c1ccccn1__gen0000
     RDKit          3D

 57 59  0  0  0  0  0  0  0  0999 V2000
   -1.1502   -2.3319    0.3573 C   0  0  0  0  0  0  0  0  0  0  0  0
   -1.7201   -3.0016    1.0063 H   0  0  0  0  0  0  0  0  0  1  0  0
   -0.6168   -1.6165    0.9792 H   0  0  0  0  0  0  0  0  0  2  0  0
   -1.8307   -1.7687   -0.2730 H   0  0  0  0  0  0  0  0  0  3  0  0
   -0.1786   -3.1294   -0.5251 C   0  0  1  0  0  0  0  0  0  4  0  0
    0.6115   -2.2252   -1.4462 C   0  0  0  0  0  0  0  0  0  5  0  0
   -0.0651   -1.6439   -2.0663 H   0  0  0  0  0  0  0  0  0  6  0  0
    1.2558   -2.8078   -2.0953 H   0  0  0  0  0  0  0  0  0  7  0  0
    1.2300   -1.5254   -0.8841 H   0  0  0  0  0  0  0  0  0  8  0  0
   -0.7784   -3.8112   -1.1456 H   0  0  0  0  0  0  0  0  0  9  0  0
    0.7573   -4.0249    0.3213 C   0  0  0  0  0  0  0  0  0 10  0  0
    1.4900   -3.2855    1.3055 N   0  0  0  0  0  0  0  0  0 11  0  0
    1.3656   -3.5205    2.6168 C   0  0  0  0  0  0  0  0  0 12  0  0
    0.7300   -4.4247    3.1097 O   0  0  0  0  0  0  0  0  0 13  0  0
    2.1445   -2.5291    3.4915 C   0  0  0  0  0  0  0  0  0 14  0  0
    3.1014   -2.2460    3.0525 H   0  0  0  0  0  0  0  0  0 15  0  0
    2.2720   -2.9530    4.4827 H   0  0  0  0  0  0  0  0  0 16  0  0
    1.1684   -1.0150    3.7526 S   0  0  0  0  0  0  0  0  0 17  0  0
    1.4699   -0.2028    2.2400 C   0  0  0  0  0  0  0  0  0 18  0  0
    2.3776   -0.5240    1.3555 N   0  0  0  0  0  0  0  0  0 19  0  0
    2.2671    0.3434    0.3293 N   0  0  0  0  0  0  0  0  0 20  0  0
    1.3231    1.1901    0.6118 C   0  0  0  0  0  0  0  0  0 21  0  0
    0.8608    2.2720   -0.3159 C   0  0  0  0  0  0  0  0  0 33  0  0
    0.2373    1.6632   -1.4862 N   0  0  0  0  0  0  0  0  0 34  0  0
   -1.0431    1.3019   -1.3516 C   0  0  0  0  0  0  0  0  0 35  0  0
   -1.6208    1.4163   -0.2960 O   0  0  0  0  0  0  0  0  0 36  0  0
   -1.6941    0.7266   -2.5928 C   0  0  0  0  0  0  0  0  0 37  0  0
   -1.1740   -0.1463   -2.9637 H   0  0  0  0  0  0  0  0  0 38  0  0
   -2.6992    0.4161   -2.2937 H   0  0  0  0  0  0  0  0  0 39  0  0
   -1.7729    1.7513   -3.6997 C   0  0  0  0  0  0  0  0  0 40  0  0
   -1.9920    2.7205   -3.2548 H   0  0  0  0  0  0  0  0  0 50  0  0
   -2.6207    1.4876   -4.3319 H   0  0  0  0  0  0  0  0  0 51  0  0
   -0.5042    1.7710   -4.5606 C   0  0  0  0  0  0  0  0  0 41  0  0
   -0.7195    2.4423   -5.3982 H   0  0  0  0  0  0  0  0  0 48  0  0
   -0.2759    0.8075   -4.9830 H   0  0  0  0  0  0  0  0  0 49  0  0
    0.7517    2.2491   -3.8207 C   0  0  0  0  0  0  0  0  0 42  0  0
    0.6271    3.2941   -3.5087 H   0  0  0  0  0  0  0  0  0 46  0  0
    1.5900    2.2102   -4.5373 H   0  0  0  0  0  0  0  0  0 47  0  0
    1.0942    1.3801   -2.6030 C   0  0  0  0  0  0  0  0  0 43  0  0
    2.1208    1.5813   -2.3268 H   0  0  0  0  0  0  0  0  0 44  0  0
    0.9842    0.3430   -2.8885 H   0  0  0  0  0  0  0  0  0 45  0  0
    0.1219    2.8923    0.1925 H   0  0  0  0  0  0  0  0  0 52  0  0
    1.7147    2.8669   -0.6195 H   0  0  0  0  0  0  0  0  0 53  0  0
    0.7735    0.8983    1.8422 N   0  0  0  0  0  0  0  0  0 22  0  0
   -0.3178    1.5214    2.4690 C   0  0  0  0  0  0  0  0  0 23  0  0
   -1.4326    1.6080    1.7534 N   0  0  0  0  0  0  0  0  0 24  0  0
   -2.4901    2.1408    2.3225 C   0  0  0  0  0  0  0  0  0 25  0  0
   -3.3823    2.1470    1.7004 H   0  0  0  0  0  0  0  0  0 32  0  0
   -2.4907    2.6411    3.6235 C   0  0  0  0  0  0  0  0  0 26  0  0
   -3.3999    3.0525    4.0418 H   0  0  0  0  0  0  0  0  0 31  0  0
   -1.3176    2.5419    4.3602 C   0  0  0  0  0  0  0  0  0 27  0  0
   -1.2848    2.9311    5.3617 H   0  0  0  0  0  0  0  0  0 30  0  0
   -0.2037    1.9838    3.7838 C   0  0  0  0  0  0  0  0  0 28  0  0
    0.7327    1.8878    4.3113 H   0  0  0  0  0  0  0  0  0 29  0  0
    1.9723   -2.4471    1.0023 H   0  0  0  0  0  0  0  0  0 54  0  0
    1.4614   -4.5209   -0.3545 H   0  0  0  0  0  0  0  0  0 55  0  0
    0.1692   -4.7790    0.8461 H   0  0  0  0  0  0  0  0  0 56  0  0
  1  2  1  0
  1  3  1  0
  1  4  1  0
  1  5  1  0
  5  6  1  0
  6  7  1  0
  6  8  1  0
  6  9  1  0
  5 10  1  6
  5 11  1  0
 11 12  1  0
 12 13  1  0
 13 14  2  0
 13 15  1  0
 15 16  1  0
 15 17  1  0
 15 18  1  0
 18 19  1  0
 19 20  4  0
 20 21  4  0
 21 22  4  0
 22 23  1  0
 23 24  1  0
 24 25  1  0
 25 26  2  0
 25 27  1  0
 27 28  1  0
 27 29  1  0
 27 30  1  0
 30 31  1  0
 30 32  1  0
 30 33  1  0
 33 34  1  0
 33 35  1  0
 33 36  1  0
 36 37  1  0
 36 38  1  0
 36 39  1  0
 39 40  1  0
 39 41  1  0
 23 42  1  0
 23 43  1  0
 22 44  4  0
 44 45  1  0
 45 46  4  0
 46 47  4  0
 47 48  1  0
 47 49  4  0
 49 50  1  0
 49 51  4  0
 51 52  1  0
 51 53  4  0
 53 54  1  0
 12 55  1  0
 11 56  1  0
 11 57  1  0
 44 19  4  0
 53 45  4  0
 39 24  1  0
M  END
>  <sample_id>  (424)
train::CC(C)CNC(=O)CSc1nnc(CN2CCCCCC2=O)n1-c1ccccn1__gen0000

>  <partition>  (424)
BAT_EXTERNAL_CONFIRM

>  <method>  (424)
BA_seed193

>  <candidate>  (424)
primary

$$$$
train::CC(C)CNC(=O)CSc1nnc(CN2CCCCCC2=O)n1-c1ccccn1__gen0001
     RDKit          3D

 57 59  0  0  0  0  0  0  0  0999 V2000
   -0.4876    4.1811   -2.5711 C   0  0  0  0  0  0  0  0  0  0  0  0
    0.1203    4.6897   -3.3270 H   0  0  0  0  0  0  0  0  0  1  0  0
   -1.4501    4.6788   -2.5136 H   0  0  0  0  0  0  0  0  0  2  0  0
   -0.0002    4.2966   -1.6009 H   0  0  0  0  0  0  0  0  0  3  0  0
   -0.6471    2.7118   -2.9148 C   0  0  1  0  0  0  0  0  0  4  0  0
   -1.4445    2.5615   -4.2242 C   0  0  0  0  0  0  0  0  0  5  0  0
   -1.5692    1.5181   -4.4595 H   0  0  0  0  0  0  0  0  0  6  0  0
   -2.4273    3.0066   -4.1259 H   0  0  0  0  0  0  0  0  0  7  0  0
   -0.9176    3.0329   -5.0417 H   0  0  0  0  0  0  0  0  0  8  0  0
   -1.2000    2.2217   -2.1263 H   0  0  0  0  0  0  0  0  0  9  0  0
    0.7169    2.0611   -3.0329 C   0  0  0  0  0  0  0  0  0 10  0  0
    0.5937    0.6259   -3.2165 N   0  0  0  0  0  0  0  0  0 11  0  0
    1.4892   -0.1220   -3.8657 C   0  0  0  0  0  0  0  0  0 12  0  0
    2.4857    0.2944   -4.4184 O   0  0  0  0  0  0  0  0  0 13  0  0
    1.1602   -1.6265   -3.8261 C   0  0  0  0  0  0  0  0  0 14  0  0
    0.1196   -1.8161   -4.0826 H   0  0  0  0  0  0  0  0  0 15  0  0
    1.8248   -2.1518   -4.5216 H   0  0  0  0  0  0  0  0  0 16  0  0
    1.4842   -2.3510   -2.2035 S   0  0  0  0  0  0  0  0  0 17  0  0
    0.0126   -1.9051   -1.3754 C   0  0  0  0  0  0  0  0  0 18  0  0
   -1.0048   -1.2986   -1.9102 N   0  0  0  0  0  0  0  0  0 19  0  0
   -1.9244   -1.1272   -0.9232 N   0  0  0  0  0  0  0  0  0 20  0  0
   -1.4673   -1.6275    0.1805 C   0  0  0  0  0  0  0  0  0 21  0  0
   -2.1200   -1.5176    1.4955 C   0  0  0  0  0  0  0  0  0 33  0  0
   -1.5796   -0.3818    2.2522 N   0  0  0  0  0  0  0  0  0 34  0  0
   -1.2209   -0.5838    3.5402 C   0  0  0  0  0  0  0  0  0 35  0  0
   -1.3765   -1.6715    4.0571 O   0  0  0  0  0  0  0  0  0 36  0  0
   -0.7362    0.6286    4.3205 C   0  0  0  0  0  0  0  0  0 37  0  0
   -0.6635    0.2909    5.3600 H   0  0  0  0  0  0  0  0  0 38  0  0
   -1.4566    1.4424    4.2681 H   0  0  0  0  0  0  0  0  0 39  0  0
    0.6144    1.1707    3.8326 C   0  0  0  0  0  0  0  0  0 40  0  0
    1.2639    0.3104    3.6782 H   0  0  0  0  0  0  0  0  0 50  0  0
    1.0940    1.8245    4.5923 H   0  0  0  0  0  0  0  0  0 51  0  0
    0.5145    2.0435    2.5827 C   0  0  0  0  0  0  0  0  0 41  0  0
    1.5118    2.4451    2.3875 H   0  0  0  0  0  0  0  0  0 48  0  0
   -0.1528    2.8959    2.7195 H   0  0  0  0  0  0  0  0  0 49  0  0
   -0.0115    1.2873    1.3698 C   0  0  0  0  0  0  0  0  0 42  0  0
    0.0577    1.9124    0.4751 H   0  0  0  0  0  0  0  0  0 46  0  0
    0.6276    0.4176    1.2187 H   0  0  0  0  0  0  0  0  0 47  0  0
   -1.4659    0.8621    1.5343 C   0  0  0  0  0  0  0  0  0 43  0  0
   -1.9310    0.7141    0.5536 H   0  0  0  0  0  0  0  0  0 44  0  0
   -2.0287    1.6484    2.0434 H   0  0  0  0  0  0  0  0  0 45  0  0
   -1.9884   -2.4119    2.1053 H   0  0  0  0  0  0  0  0  0 52  0  0
   -3.1920   -1.3590    1.3159 H   0  0  0  0  0  0  0  0  0 53  0  0
   -0.2197   -2.1904   -0.0399 N   0  0  0  0  0  0  0  0  0 22  0  0
    0.6226   -2.7956    0.8812 C   0  0  0  0  0  0  0  0  0 23  0  0
    0.7139   -2.1839    2.0578 N   0  0  0  0  0  0  0  0  0 24  0  0
    1.4817   -2.7405    2.9841 C   0  0  0  0  0  0  0  0  0 25  0  0
    1.5105   -2.2145    3.9198 H   0  0  0  0  0  0  0  0  0 32  0  0
    2.1944   -3.9072    2.7837 C   0  0  0  0  0  0  0  0  0 26  0  0
    2.8019   -4.3221    3.5717 H   0  0  0  0  0  0  0  0  0 31  0  0
    2.1116   -4.5202    1.5436 C   0  0  0  0  0  0  0  0  0 27  0  0
    2.6482   -5.4359    1.3414 H   0  0  0  0  0  0  0  0  0 30  0  0
    1.3160   -3.9706    0.5656 C   0  0  0  0  0  0  0  0  0 28  0  0
    1.2102   -4.4109   -0.4094 H   0  0  0  0  0  0  0  0  0 29  0  0
   -0.2069    0.1620   -2.7814 H   0  0  0  0  0  0  0  0  0 54  0  0
    1.2777    2.4489   -3.8886 H   0  0  0  0  0  0  0  0  0 55  0  0
    1.3105    2.2584   -2.1318 H   0  0  0  0  0  0  0  0  0 56  0  0
  1  2  1  0
  1  3  1  0
  1  4  1  0
  1  5  1  0
  5  6  1  0
  6  7  1  0
  6  8  1  0
  6  9  1  0
  5 10  1  1
  5 11  1  0
 11 12  1  0
 12 13  1  0
 13 14  2  0
 13 15  1  0
 15 16  1  0
 15 17  1  0
 15 18  1  0
 18 19  1  0
 19 20  4  0
 20 21  4  0
 21 22  4  0
 22 23  1  0
 23 24  1  0
 24 25  1  0
 25 26  2  0
 25 27  1  0
 27 28  1  0
 27 29  1  0
 27 30  1  0
 30 31  1  0
 30 32  1  0
 30 33  1  0
 33 34  1  0
 33 35  1  0
 33 36  1  0
 36 37  1  0
 36 38  1  0
 36 39  1  0
 39 40  1  0
 39 41  1  0
 23 42  1  0
 23 43  1  0
 22 44  4  0
 44 45  1  0
 45 46  4  0
 46 47  4  0
 47 48  1  0
 47 49  4  0
 49 50  1  0
 49 51  4  0
 51 52  1  0
 51 53  4  0
 53 54  1  0
 12 55  1  0
 11 56  1  0
 11 57  1  0
 44 19  4  0
 53 45  4  0
 39 24  1  0
M  END
>  <sample_id>  (425)
train::CC(C)CNC(=O)CSc1nnc(CN2CCCCCC2=O)n1-c1ccccn1__gen0001

>  <partition>  (425)
BAT_EXTERNAL_CONFIRM

>  <method>  (425)
BA_seed193

>  <candidate>  (425)
primary

$$$$
train::CC(C)CNC(=O)CSc1nnc(CN2CCCCCC2=O)n1-c1ccccn1__gen0002
     RDKit          3D

 57 59  0  0  0  0  0  0  0  0999 V2000
    0.9248   -2.9765    0.0563 C   0  0  0  0  0  0  0  0  0  0  0  0
    0.4228   -2.3880   -0.7053 H   0  0  0  0  0  0  0  0  0  1  0  0
    1.8104   -2.4410    0.4105 H   0  0  0  0  0  0  0  0  0  2  0  0
    1.2239   -3.9391   -0.3839 H   0  0  0  0  0  0  0  0  0  3  0  0
   -0.0312   -3.2249    1.2264 C   0  0  1  0  0  0  0  0  0  4  0  0
   -0.4418   -1.9082    1.8878 C   0  0  0  0  0  0  0  0  0  5  0  0
   -0.9918   -1.2764    1.1973 H   0  0  0  0  0  0  0  0  0  6  0  0
    0.4346   -1.3762    2.2343 H   0  0  0  0  0  0  0  0  0  7  0  0
   -1.0973   -2.1085    2.7495 H   0  0  0  0  0  0  0  0  0  8  0  0
    0.4894   -3.8387    1.9741 H   0  0  0  0  0  0  0  0  0  9  0  0
   -1.2623   -4.0213    0.7925 C   0  0  0  0  0  0  0  0  0 10  0  0
   -2.1557   -3.2973   -0.0792 N   0  0  0  0  0  0  0  0  0 11  0  0
   -3.4104   -2.9868    0.2610 C   0  0  0  0  0  0  0  0  0 12  0  0
   -3.9631   -3.3392    1.2816 O   0  0  0  0  0  0  0  0  0 13  0  0
   -4.1349   -2.1417   -0.7838 C   0  0  0  0  0  0  0  0  0 14  0  0
   -3.8100   -2.3724   -1.7982 H   0  0  0  0  0  0  0  0  0 15  0  0
   -5.2113   -2.2758   -0.6704 H   0  0  0  0  0  0  0  0  0 16  0  0
   -3.8688   -0.3495   -0.4970 S   0  0  0  0  0  0  0  0  0 17  0  0
   -2.2881   -0.1834   -1.1243 C   0  0  0  0  0  0  0  0  0 18  0  0
   -1.5525   -1.1102   -1.6730 N   0  0  0  0  0  0  0  0  0 19  0  0
   -0.3706   -0.5279   -1.9811 N   0  0  0  0  0  0  0  0  0 20  0  0
   -0.3766    0.7282   -1.6434 C   0  0  0  0  0  0  0  0  0 21  0  0
    0.7887    1.6462   -1.7508 C   0  0  0  0  0  0  0  0  0 33  0  0
    1.8897    1.1010   -0.9782 N   0  0  0  0  0  0  0  0  0 34  0  0
    2.8941    0.5353   -1.6569 C   0  0  0  0  0  0  0  0  0 35  0  0
    2.9344    0.5708   -2.8631 O   0  0  0  0  0  0  0  0  0 36  0  0
    3.9719   -0.1691   -0.8514 C   0  0  0  0  0  0  0  0  0 37  0  0
    3.5308   -0.9644   -0.2478 H   0  0  0  0  0  0  0  0  0 38  0  0
    4.6383   -0.6318   -1.5770 H   0  0  0  0  0  0  0  0  0 39  0  0
    4.7857    0.7433    0.0702 C   0  0  0  0  0  0  0  0  0 40  0  0
    5.0209    1.6544   -0.4833 H   0  0  0  0  0  0  0  0  0 50  0  0
    5.7269    0.2541    0.3159 H   0  0  0  0  0  0  0  0  0 51  0  0
    4.0646    1.0522    1.3848 C   0  0  0  0  0  0  0  0  0 41  0  0
    3.8488    0.1047    1.8693 H   0  0  0  0  0  0  0  0  0 48  0  0
    4.7258    1.6167    2.0396 H   0  0  0  0  0  0  0  0  0 49  0  0
    2.7814    1.8697    1.2043 C   0  0  0  0  0  0  0  0  0 42  0  0
    3.0446    2.7826    0.6511 H   0  0  0  0  0  0  0  0  0 46  0  0
    2.3923    2.1481    2.1693 H   0  0  0  0  0  0  0  0  0 47  0  0
    1.6956    1.1077    0.4460 C   0  0  0  0  0  0  0  0  0 43  0  0
    0.7382    1.5918    0.6580 H   0  0  0  0  0  0  0  0  0 44  0  0
    1.6687    0.0763    0.8094 H   0  0  0  0  0  0  0  0  0 45  0  0
    1.0976    1.7115   -2.8008 H   0  0  0  0  0  0  0  0  0 52  0  0
    0.5072    2.6375   -1.3826 H   0  0  0  0  0  0  0  0  0 53  0  0
   -1.6172    1.0189   -1.1021 N   0  0  0  0  0  0  0  0  0 22  0  0
   -2.1111    2.2014   -0.5382 C   0  0  0  0  0  0  0  0  0 23  0  0
   -2.5973    2.0827    0.6801 N   0  0  0  0  0  0  0  0  0 24  0  0
   -3.0973    3.1663    1.2586 C   0  0  0  0  0  0  0  0  0 25  0  0
   -3.4891    3.0035    2.2533 H   0  0  0  0  0  0  0  0  0 32  0  0
   -3.1279    4.4093    0.6581 C   0  0  0  0  0  0  0  0  0 26  0  0
   -3.5342    5.2591    1.1768 H   0  0  0  0  0  0  0  0  0 31  0  0
   -2.5896    4.5234   -0.6092 C   0  0  0  0  0  0  0  0  0 27  0  0
   -2.6043    5.4819   -1.1212 H   0  0  0  0  0  0  0  0  0 30  0  0
   -2.0908    3.4057   -1.2439 C   0  0  0  0  0  0  0  0  0 28  0  0
   -1.6651    3.4535   -2.2336 H   0  0  0  0  0  0  0  0  0 29  0  0
   -1.7541   -2.8425   -0.9062 H   0  0  0  0  0  0  0  0  0 54  0  0
   -0.9507   -4.9450    0.2904 H   0  0  0  0  0  0  0  0  0 55  0  0
   -1.8568   -4.3022    1.6792 H   0  0  0  0  0  0  0  0  0 56  0  0
  1  2  1  0
  1  3  1  0
  1  4  1  0
  1  5  1  0
  5  6  1  0
  6  7  1  0
  6  8  1  0
  6  9  1  0
  5 10  1  1
  5 11  1  0
 11 12  1  0
 12 13  1  0
 13 14  2  0
 13 15  1  0
 15 16  1  0
 15 17  1  0
 15 18  1  0
 18 19  1  0
 19 20  4  0
 20 21  4  0
 21 22  4  0
 22 23  1  0
 23 24  1  0
 24 25  1  0
 25 26  2  0
 25 27  1  0
 27 28  1  0
 27 29  1  0
 27 30  1  0
 30 31  1  0
 30 32  1  0
 30 33  1  0
 33 34  1  0
 33 35  1  0
 33 36  1  0
 36 37  1  0
 36 38  1  0
 36 39  1  0
 39 40  1  0
 39 41  1  0
 23 42  1  0
 23 43  1  0
 22 44  4  0
 44 45  1  0
 45 46  4  0
 46 47  4  0
 47 48  1  0
 47 49  4  0
 49 50  1  0
 49 51  4  0
 51 52  1  0
 51 53  4  0
 53 54  1  0
 12 55  1  0
 11 56  1  0
 11 57  1  0
 44 19  4  0
 53 45  4  0
 39 24  1  0
M  END
>  <sample_id>  (426)
train::CC(C)CNC(=O)CSc1nnc(CN2CCCCCC2=O)n1-c1ccccn1__gen0002

>  <partition>  (426)
BAT_EXTERNAL_CONFIRM

>  <method>  (426)
BA_seed193

>  <candidate>  (426)
primary

$$$$
train::COc1c(Br)cc(Br)cc1_C=N_NC(=O)c1cccnc1__gen0000
     RDKit          3D

 32 33  0  0  0  0  0  0  0  0999 V2000
    0.9762    1.3709    1.0789 C   0  0  0  0  0  0  0  0  0  0  0  0
    0.1400    1.8778    1.5700 H   0  0  0  0  0  0  0  0  0  1  0  0
    0.9488    0.3045    1.3108 H   0  0  0  0  0  0  0  0  0  2  0  0
    1.9126    1.7927    1.4411 H   0  0  0  0  0  0  0  0  0  3  0  0
    0.9556    1.5843   -0.3147 O   0  0  0  0  0  0  0  0  0  4  0  0
   -0.1567    1.8259   -1.0076 C   0  0  0  0  0  0  0  0  0  5  0  0
    0.0368    2.5634   -2.1791 C   0  0  0  0  0  0  0  0  0  6  0  0
    1.8163    2.9267   -2.7175 Br  0  0  0  0  0  0  0  0  0 31  0  0
   -1.0112    3.0264   -2.9617 C   0  0  0  0  0  0  0  0  0  7  0  0
   -0.8200    3.5954   -3.8639 H   0  0  0  0  0  0  0  0  0 30  0  0
   -2.3051    2.7896   -2.5325 C   0  0  0  0  0  0  0  0  0  8  0  0
   -3.7820    3.4897   -3.5056 Br  0  0  0  0  0  0  0  0  0 29  0  0
   -2.5371    2.0246   -1.4075 C   0  0  0  0  0  0  0  0  0  9  0  0
   -3.5601    1.7955   -1.1267 H   0  0  0  0  0  0  0  0  0 28  0  0
   -1.4889    1.4930   -0.6529 C   0  0  0  0  0  0  0  0  0 10  0  0
   -1.8633    0.5202    0.3620 C   0  0  0  0  0  0  0  0  0 11  0  0
   -1.0953   -0.4482    0.6582 N   0  0  0  0  0  0  0  0  0 12  0  0
   -1.5164   -1.4026    1.5094 N   0  0  0  0  0  0  0  0  0 13  0  0
   -0.7043   -2.4296    1.9206 C   0  0  0  0  0  0  0  0  0 14  0  0
   -1.1068   -3.2132    2.7546 O   0  0  0  0  0  0  0  0  0 15  0  0
    0.6836   -2.4584    1.3663 C   0  0  0  0  0  0  0  0  0 16  0  0
    0.9702   -2.2062    0.0228 C   0  0  0  0  0  0  0  0  0 17  0  0
    0.1780   -1.9624   -0.6745 H   0  0  0  0  0  0  0  0  0 25  0  0
    2.2844   -2.2530   -0.3929 C   0  0  0  0  0  0  0  0  0 18  0  0
    2.5493   -2.0594   -1.4157 H   0  0  0  0  0  0  0  0  0 24  0  0
    3.2623   -2.5521    0.5491 C   0  0  0  0  0  0  0  0  0 19  0  0
    4.3077   -2.6055    0.2766 H   0  0  0  0  0  0  0  0  0 23  0  0
    2.9907   -2.8230    1.8219 N   0  0  0  0  0  0  0  0  0 20  0  0
    1.7329   -2.7858    2.2146 C   0  0  0  0  0  0  0  0  0 21  0  0
    1.5416   -3.0257    3.2499 H   0  0  0  0  0  0  0  0  0 22  0  0
   -2.4536   -1.3734    1.9028 H   0  0  0  0  0  0  0  0  0 26  0  0
   -2.8863    0.6178    0.7432 H   0  0  0  0  0  0  0  0  0 27  0  0
  1  2  1  0
  1  3  1  0
  1  4  1  0
  1  5  1  0
  5  6  1  0
  6  7  4  0
  7  8  1  0
  7  9  4  0
  9 10  1  0
  9 11  4  0
 11 12  1  0
 11 13  4  0
 13 14  1  0
 13 15  4  0
 15 16  1  0
 16 17  2  0
 17 18  1  0
 18 19  1  0
 19 20  2  0
 19 21  1  0
 21 22  4  0
 22 23  1  0
 22 24  4  0
 24 25  1  0
 24 26  4  0
 26 27  1  0
 26 28  4  0
 28 29  4  0
 29 30  1  0
 18 31  1  0
 16 32  1  0
 15  6  4  0
 29 21  4  0
M  END
>  <sample_id>  (427)
train::COc1c(Br)cc(Br)cc1_C=N_NC(=O)c1cccnc1__gen0000

>  <partition>  (427)
BAT_EXTERNAL_CONFIRM

>  <method>  (427)
BA_seed193

>  <candidate>  (427)
primary

$$$$
train::COc1c(Br)cc(Br)cc1_C=N_NC(=O)c1cccnc1__gen0001
     RDKit          3D

 32 33  0  0  0  0  0  0  0  0999 V2000
   -2.1364   -2.0383    1.2412 C   0  0  0  0  0  0  0  0  0  0  0  0
   -2.1710   -2.8939    1.9301 H   0  0  0  0  0  0  0  0  0  1  0  0
   -3.1177   -1.5726    1.1859 H   0  0  0  0  0  0  0  0  0  2  0  0
   -1.3924   -1.3372    1.6272 H   0  0  0  0  0  0  0  0  0  3  0  0
   -1.8152   -2.4772   -0.0626 O   0  0  0  0  0  0  0  0  0  4  0  0
   -0.6254   -3.0909   -0.2207 C   0  0  0  0  0  0  0  0  0  5  0  0
   -0.6245   -4.4815   -0.3639 C   0  0  0  0  0  0  0  0  0  6  0  0
   -2.2936   -5.3753   -0.3546 Br  0  0  0  0  0  0  0  0  0 31  0  0
    0.5485   -5.2168   -0.5171 C   0  0  0  0  0  0  0  0  0  7  0  0
    0.5183   -6.2853   -0.6529 H   0  0  0  0  0  0  0  0  0 30  0  0
    1.7546   -4.5324   -0.4939 C   0  0  0  0  0  0  0  0  0  8  0  0
    3.3782   -5.5035   -0.6734 Br  0  0  0  0  0  0  0  0  0 29  0  0
    1.7850   -3.1568   -0.3649 C   0  0  0  0  0  0  0  0  0  9  0  0
    2.7369   -2.6419   -0.3888 H   0  0  0  0  0  0  0  0  0 28  0  0
    0.6112   -2.4136   -0.2317 C   0  0  0  0  0  0  0  0  0 10  0  0
    0.7158   -0.9714   -0.1698 C   0  0  0  0  0  0  0  0  0 11  0  0
   -0.3114   -0.2280   -0.2659 N   0  0  0  0  0  0  0  0  0 12  0  0
   -0.2578    1.1096   -0.2322 N   0  0  0  0  0  0  0  0  0 13  0  0
    0.7893    1.9676   -0.0606 C   0  0  0  0  0  0  0  0  0 14  0  0
    1.9494    1.6181    0.0905 O   0  0  0  0  0  0  0  0  0 15  0  0
    0.3990    3.4024   -0.0836 C   0  0  0  0  0  0  0  0  0 16  0  0
   -0.8085    3.8967    0.4019 C   0  0  0  0  0  0  0  0  0 17  0  0
   -1.5443    3.2360    0.8508 H   0  0  0  0  0  0  0  0  0 25  0  0
   -1.0476    5.2548    0.3310 C   0  0  0  0  0  0  0  0  0 18  0  0
   -1.9704    5.6691    0.7074 H   0  0  0  0  0  0  0  0  0 24  0  0
   -0.0698    6.0722   -0.2264 C   0  0  0  0  0  0  0  0  0 19  0  0
   -0.2253    7.1419   -0.2946 H   0  0  0  0  0  0  0  0  0 23  0  0
    1.0841    5.6149   -0.6773 N   0  0  0  0  0  0  0  0  0 20  0  0
    1.3167    4.3230   -0.6062 C   0  0  0  0  0  0  0  0  0 21  0  0
    2.2796    3.9782   -0.9670 H   0  0  0  0  0  0  0  0  0 22  0  0
   -1.1921    1.5067   -0.3845 H   0  0  0  0  0  0  0  0  0 26  0  0
    1.7366   -0.5745   -0.0735 H   0  0  0  0  0  0  0  0  0 27  0  0
  1  2  1  0
  1  3  1  0
  1  4  1  0
  1  5  1  0
  5  6  1  0
  6  7  4  0
  7  8  1  0
  7  9  4  0
  9 10  1  0
  9 11  4  0
 11 12  1  0
 11 13  4  0
 13 14  1  0
 13 15  4  0
 15 16  1  0
 16 17  2  0
 17 18  1  0
 18 19  1  0
 19 20  2  0
 19 21  1  0
 21 22  4  0
 22 23  1  0
 22 24  4  0
 24 25  1  0
 24 26  4  0
 26 27  1  0
 26 28  4  0
 28 29  4  0
 29 30  1  0
 18 31  1  0
 16 32  1  0
 15  6  4  0
 29 21  4  0
M  END
>  <sample_id>  (428)
train::COc1c(Br)cc(Br)cc1_C=N_NC(=O)c1cccnc1__gen0001

>  <partition>  (428)
BAT_EXTERNAL_CONFIRM

>  <method>  (428)
BA_seed193

>  <candidate>  (428)
primary

$$$$
train::COc1c(Br)cc(Br)cc1_C=N_NC(=O)c1cccnc1__gen0002
     RDKit          3D

 32 33  0  0  0  0  0  0  0  0999 V2000
   -1.0677   -3.1860    0.8072 C   0  0  0  0  0  0  0  0  0  0  0  0
   -1.4870   -4.1426    0.4599 H   0  0  0  0  0  0  0  0  0  1  0  0
   -0.9161   -3.2415    1.8839 H   0  0  0  0  0  0  0  0  0  2  0  0
   -0.1102   -3.0264    0.2980 H   0  0  0  0  0  0  0  0  0  3  0  0
   -1.9387   -2.0990    0.5893 O   0  0  0  0  0  0  0  0  0  4  0  0
   -2.3252   -1.9044   -0.6971 C   0  0  0  0  0  0  0  0  0  5  0  0
   -3.3718   -2.6621   -1.2517 C   0  0  0  0  0  0  0  0  0  6  0  0
   -4.1852   -4.0112   -0.2027 Br  0  0  0  0  0  0  0  0  0 31  0  0
   -3.8464   -2.4546   -2.5425 C   0  0  0  0  0  0  0  0  0  7  0  0
   -4.6426   -3.0529   -2.9410 H   0  0  0  0  0  0  0  0  0 30  0  0
   -3.2640   -1.4585   -3.2993 C   0  0  0  0  0  0  0  0  0  8  0  0
   -3.8887   -1.1601   -5.0625 Br  0  0  0  0  0  0  0  0  0 29  0  0
   -2.2356   -0.6933   -2.7980 C   0  0  0  0  0  0  0  0  0  9  0  0
   -1.8095    0.1018   -3.3868 H   0  0  0  0  0  0  0  0  0 28  0  0
   -1.7600   -0.8901   -1.4976 C   0  0  0  0  0  0  0  0  0 10  0  0
   -0.7119   -0.0428   -1.0118 C   0  0  0  0  0  0  0  0  0 11  0  0
   -0.2009   -0.2147    0.1452 N   0  0  0  0  0  0  0  0  0 12  0  0
    0.7796    0.5687    0.6329 N   0  0  0  0  0  0  0  0  0 13  0  0
    1.4438    1.6328    0.1158 C   0  0  0  0  0  0  0  0  0 14  0  0
    1.2914    2.0527   -1.0186 O   0  0  0  0  0  0  0  0  0 15  0  0
    2.4330    2.2493    1.0654 C   0  0  0  0  0  0  0  0  0 16  0  0
    2.2297    2.3237    2.4444 C   0  0  0  0  0  0  0  0  0 17  0  0
    1.3362    1.9530    2.9025 H   0  0  0  0  0  0  0  0  0 25  0  0
    3.1948    2.9438    3.2070 C   0  0  0  0  0  0  0  0  0 18  0  0
    3.0858    3.0222    4.2867 H   0  0  0  0  0  0  0  0  0 24  0  0
    4.3279    3.4460    2.5778 C   0  0  0  0  0  0  0  0  0 19  0  0
    5.1150    3.9314    3.1439 H   0  0  0  0  0  0  0  0  0 23  0  0
    4.5098    3.3958    1.2682 N   0  0  0  0  0  0  0  0  0 20  0  0
    3.5881    2.8075    0.5308 C   0  0  0  0  0  0  0  0  0 21  0  0
    3.7562    2.8095   -0.5422 H   0  0  0  0  0  0  0  0  0 22  0  0
    1.0480    0.2507    1.5792 H   0  0  0  0  0  0  0  0  0 26  0  0
   -0.3776    0.7513   -1.6865 H   0  0  0  0  0  0  0  0  0 27  0  0
  1  2  1  0
  1  3  1  0
  1  4  1  0
  1  5  1  0
  5  6  1  0
  6  7  4  0
  7  8  1  0
  7  9  4  0
  9 10  1  0
  9 11  4  0
 11 12  1  0
 11 13  4  0
 13 14  1  0
 13 15  4  0
 15 16  1  0
 16 17  2  0
 17 18  1  0
 18 19  1  0
 19 20  2  0
 19 21  1  0
 21 22  4  0
 22 23  1  0
 22 24  4  0
 24 25  1  0
 24 26  4  0
 26 27  1  0
 26 28  4  0
 28 29  4  0
 29 30  1  0
 18 31  1  0
 16 32  1  0
 15  6  4  0
 29 21  4  0
M  END
>  <sample_id>  (429)
train::COc1c(Br)cc(Br)cc1_C=N_NC(=O)c1cccnc1__gen0002

>  <partition>  (429)
BAT_EXTERNAL_CONFIRM

>  <method>  (429)
BA_seed193

>  <candidate>  (429)
primary

$$$$
train::COc1cc(-c2noc(CCCC(=O)NCc3ccco3)n2)cc(OC)c1OC__gen0000
     RDKit          3D

 52 54  0  0  0  0  0  0  0  0999 V2000
   -2.6128    0.8206    0.3875 C   0  0  0  0  0  0  0  0  0  0  0  0
   -1.8525    0.8436    1.1943 H   0  0  0  0  0  0  0  0  0  1  0  0
   -3.5483    1.1748    0.8326 H   0  0  0  0  0  0  0  0  0  2  0  0
   -2.8420   -0.4511   -0.0616 O   0  0  0  0  0  0  0  0  0  3  0  0
   -1.9138   -1.0766   -0.8462 C   0  0  0  0  0  0  0  0  0  4  0  0
   -0.6002   -0.6430   -0.9467 C   0  0  0  0  0  0  0  0  0  5  0  0
   -0.2414    0.2202   -0.4107 H   0  0  0  0  0  0  0  0  0 50  0  0
    0.2857   -1.3075   -1.7886 C   0  0  0  0  0  0  0  0  0  6  0  0
    1.6514   -0.8396   -1.8928 C   0  0  0  0  0  0  0  0  0 21  0  0
    2.5300   -1.3170   -2.7355 N   0  0  0  0  0  0  0  0  0 22  0  0
    3.6616   -0.5938   -2.5388 O   0  0  0  0  0  0  0  0  0 23  0  0
    3.3862    0.2898   -1.5724 C   0  0  0  0  0  0  0  0  0 24  0  0
    4.4463    1.2416   -1.1604 C   0  0  0  0  0  0  0  0  0 26  0  0
    5.3772    0.6875   -1.0370 H   0  0  0  0  0  0  0  0  0 27  0  0
    4.6175    1.9326   -1.9947 H   0  0  0  0  0  0  0  0  0 28  0  0
    4.0619    1.9697    0.1059 C   0  0  0  0  0  0  0  0  0 29  0  0
    3.0753    2.4309   -0.0132 H   0  0  0  0  0  0  0  0  0 30  0  0
    4.7732    2.7541    0.3139 H   0  0  0  0  0  0  0  0  0 31  0  0
    3.9666    0.9903    1.2711 C   0  0  0  0  0  0  0  0  0 32  0  0
    3.1275    1.5518    2.4114 C   0  0  0  0  0  0  0  0  0 33  0  0
    3.5456    2.2400    3.3126 O   0  0  0  0  0  0  0  0  0 34  0  0
    1.8727    1.1418    2.2615 N   0  0  0  0  0  0  0  0  0 35  0  0
    1.5834    0.7186    1.4091 H   0  0  0  0  0  0  0  0  0 36  0  0
    0.8955    1.4094    3.2833 C   0  0  0  0  0  0  0  0  0 37  0  0
   -0.2241    2.2881    2.8205 C   0  0  0  0  0  0  0  0  0 38  0  0
   -0.3056    3.1673    1.7692 C   0  0  0  0  0  0  0  0  0 39  0  0
    0.4711    3.4018    1.0686 H   0  0  0  0  0  0  0  0  0 45  0  0
   -1.5873    3.7604    1.8599 C   0  0  0  0  0  0  0  0  0 40  0  0
   -1.9950    4.4980    1.2080 H   0  0  0  0  0  0  0  0  0 44  0  0
   -2.1890    3.1775    2.9368 C   0  0  0  0  0  0  0  0  0 41  0  0
   -3.1474    3.3113    3.3817 H   0  0  0  0  0  0  0  0  0 43  0  0
   -1.3695    2.2931    3.5179 O   0  0  0  0  0  0  0  0  0 42  0  0
    0.4789    0.4722    3.6713 H   0  0  0  0  0  0  0  0  0 46  0  0
    1.4136    1.9337    4.0897 H   0  0  0  0  0  0  0  0  0 47  0  0
    4.9673    0.7323    1.6289 H   0  0  0  0  0  0  0  0  0 48  0  0
    3.4571    0.0918    0.9789 H   0  0  0  0  0  0  0  0  0 49  0  0
    2.1599    0.1930   -1.1494 N   0  0  0  0  0  0  0  0  0 25  0  0
   -0.1239   -2.4263   -2.5010 C   0  0  0  0  0  0  0  0  0  7  0  0
    0.5559   -2.9356   -3.1490 H   0  0  0  0  0  0  0  0  0 20  0  0
   -1.4257   -2.8791   -2.4068 C   0  0  0  0  0  0  0  0  0  8  0  0
   -1.6980   -3.9554   -3.1783 O   0  0  0  0  0  0  0  0  0 15  0  0
   -2.9370   -4.6113   -3.2113 C   0  0  0  0  0  0  0  0  0 16  0  0
   -2.8209   -5.3851   -3.9533 H   0  0  0  0  0  0  0  0  0 17  0  0
   -3.1860   -5.0482   -2.2302 H   0  0  0  0  0  0  0  0  0 18  0  0
   -3.7383   -3.9415   -3.5117 H   0  0  0  0  0  0  0  0  0 19  0  0
   -2.3346   -2.2304   -1.5444 C   0  0  0  0  0  0  0  0  0  9  0  0
   -3.6355   -2.6740   -1.4847 O   0  0  0  0  0  0  0  0  0 10  0  0
   -4.2890   -2.7195   -0.2393 C   0  0  0  0  0  0  0  0  0 11  0  0
   -4.7162   -1.7531    0.0268 H   0  0  0  0  0  0  0  0  0 12  0  0
   -3.5977   -3.0343    0.5616 H   0  0  0  0  0  0  0  0  0 13  0  0
   -5.0946   -3.4398   -0.3382 H   0  0  0  0  0  0  0  0  0 14  0  0
   -2.3350    1.5242   -0.4070 H   0  0  0  0  0  0  0  0  0 51  0  0
  1  2  1  0
  1  3  1  0
  1  4  1  0
  4  5  1  0
  5  6  4  0
  6  7  1  0
  6  8  4  0
  8  9  1  0
  9 10  4  0
 10 11  4  0
 11 12  4  0
 12 13  1  0
 13 14  1  0
 13 15  1  0
 13 16  1  0
 16 17  1  0
 16 18  1  0
 16 19  1  0
 19 20  1  0
 20 21  2  0
 20 22  1  0
 22 23  1  0
 22 24  1  0
 24 25  1  0
 25 26  4  0
 26 27  1  0
 26 28  4  0
 28 29  1  0
 28 30  4  0
 30 31  1  0
 30 32  4  0
 24 33  1  0
 24 34  1  0
 19 35  1  0
 19 36  1  0
 12 37  4  0
  8 38  4  0
 38 39  1  0
 38 40  4  0
 40 41  1  0
 41 42  1  0
 42 43  1  0
 42 44  1  0
 42 45  1  0
 40 46  4  0
 46 47  1  0
 47 48  1  0
 48 49  1  0
 48 50  1  0
 48 51  1  0
  1 52  1  0
 46  5  4  0
 37  9  4  0
 32 25  4  0
M  END
>  <sample_id>  (430)
train::COc1cc(-c2noc(CCCC(=O)NCc3ccco3)n2)cc(OC)c1OC__gen0000

>  <partition>  (430)
BAT_EXTERNAL_CONFIRM

>  <method>  (430)
BA_seed193

>  <candidate>  (430)
primary

$$$$
train::COc1cc(-c2noc(CCCC(=O)NCc3ccco3)n2)cc(OC)c1OC__gen0001
     RDKit          3D

 52 54  0  0  0  0  0  0  0  0999 V2000
   -2.7085   -0.6855   -2.4611 C   0  0  0  0  0  0  0  0  0  0  0  0
   -2.3235   -1.7070   -2.5378 H   0  0  0  0  0  0  0  0  0  1  0  0
   -3.5060   -0.5404   -3.1880 H   0  0  0  0  0  0  0  0  0  2  0  0
   -3.3029   -0.4581   -1.1983 O   0  0  0  0  0  0  0  0  0  3  0  0
   -2.5024   -0.5628   -0.0947 C   0  0  0  0  0  0  0  0  0  4  0  0
   -1.1510   -0.8281   -0.1343 C   0  0  0  0  0  0  0  0  0  5  0  0
   -0.6151   -0.9503   -1.0599 H   0  0  0  0  0  0  0  0  0 50  0  0
   -0.4352   -0.8972    1.0534 C   0  0  0  0  0  0  0  0  0  6  0  0
    1.0141   -1.0392    0.9986 C   0  0  0  0  0  0  0  0  0 21  0  0
    1.7756   -1.2665    2.0328 N   0  0  0  0  0  0  0  0  0 22  0  0
    3.0412   -1.1983    1.5496 O   0  0  0  0  0  0  0  0  0 23  0  0
    2.9531   -0.9216    0.2370 C   0  0  0  0  0  0  0  0  0 24  0  0
    4.1829   -0.6305   -0.5469 C   0  0  0  0  0  0  0  0  0 26  0  0
    4.1290    0.4152   -0.8673 H   0  0  0  0  0  0  0  0  0 27  0  0
    5.0147   -0.7553    0.1447 H   0  0  0  0  0  0  0  0  0 28  0  0
    4.3789   -1.5161   -1.7934 C   0  0  0  0  0  0  0  0  0 29  0  0
    5.2725   -1.1485   -2.3024 H   0  0  0  0  0  0  0  0  0 30  0  0
    4.5662   -2.5386   -1.4836 H   0  0  0  0  0  0  0  0  0 31  0  0
    3.1919   -1.4473   -2.7685 C   0  0  0  0  0  0  0  0  0 32  0  0
    2.8652    0.0061   -3.0610 C   0  0  0  0  0  0  0  0  0 33  0  0
    3.6420    0.7859   -3.5974 O   0  0  0  0  0  0  0  0  0 34  0  0
    1.6209    0.3339   -2.7014 N   0  0  0  0  0  0  0  0  0 35  0  0
    1.1342   -0.2499   -2.0264 H   0  0  0  0  0  0  0  0  0 36  0  0
    1.1651    1.7225   -2.6918 C   0  0  0  0  0  0  0  0  0 37  0  0
    0.8110    2.1166   -1.3016 C   0  0  0  0  0  0  0  0  0 38  0  0
    1.5837    2.3894   -0.2044 C   0  0  0  0  0  0  0  0  0 39  0  0
    2.6512    2.4469   -0.1817 H   0  0  0  0  0  0  0  0  0 45  0  0
    0.6887    2.5860    0.8830 C   0  0  0  0  0  0  0  0  0 40  0  0
    0.9487    2.8180    1.8934 H   0  0  0  0  0  0  0  0  0 44  0  0
   -0.5663    2.4398    0.3616 C   0  0  0  0  0  0  0  0  0 41  0  0
   -1.5441    2.4658    0.8052 H   0  0  0  0  0  0  0  0  0 43  0  0
   -0.5040    2.1521   -0.9375 O   0  0  0  0  0  0  0  0  0 42  0  0
    0.2797    1.8267   -3.3341 H   0  0  0  0  0  0  0  0  0 46  0  0
    1.9796    2.3313   -3.0760 H   0  0  0  0  0  0  0  0  0 47  0  0
    2.3031   -1.9030   -2.3434 H   0  0  0  0  0  0  0  0  0 48  0  0
    3.4809   -1.9645   -3.6891 H   0  0  0  0  0  0  0  0  0 49  0  0
    1.7308   -0.8399   -0.1539 N   0  0  0  0  0  0  0  0  0 25  0  0
   -1.0714   -0.7663    2.2799 C   0  0  0  0  0  0  0  0  0  7  0  0
   -0.4662   -0.8428    3.1711 H   0  0  0  0  0  0  0  0  0 20  0  0
   -2.4365   -0.5174    2.3348 C   0  0  0  0  0  0  0  0  0  8  0  0
   -3.1110   -0.3785    3.5088 O   0  0  0  0  0  0  0  0  0 15  0  0
   -2.3790   -0.4588    4.7210 C   0  0  0  0  0  0  0  0  0 16  0  0
   -3.1218   -0.3076    5.5043 H   0  0  0  0  0  0  0  0  0 17  0  0
   -1.6298    0.3424    4.7737 H   0  0  0  0  0  0  0  0  0 18  0  0
   -1.9048   -1.4289    4.8401 H   0  0  0  0  0  0  0  0  0 19  0  0
   -3.1628   -0.3806    1.1301 C   0  0  0  0  0  0  0  0  0  9  0  0
   -4.4912   -0.1031    1.0193 O   0  0  0  0  0  0  0  0  0 10  0  0
   -5.2426    0.4141    2.0923 C   0  0  0  0  0  0  0  0  0 11  0  0
   -6.2043    0.6816    1.6575 H   0  0  0  0  0  0  0  0  0 12  0  0
   -5.4095   -0.3439    2.8747 H   0  0  0  0  0  0  0  0  0 13  0  0
   -4.7200    1.2871    2.5228 H   0  0  0  0  0  0  0  0  0 14  0  0
   -1.8950    0.0153   -2.6538 H   0  0  0  0  0  0  0  0  0 51  0  0
  1  2  1  0
  1  3  1  0
  1  4  1  0
  4  5  1  0
  5  6  4  0
  6  7  1  0
  6  8  4  0
  8  9  1  0
  9 10  4  0
 10 11  4  0
 11 12  4  0
 12 13  1  0
 13 14  1  0
 13 15  1  0
 13 16  1  0
 16 17  1  0
 16 18  1  0
 16 19  1  0
 19 20  1  0
 20 21  2  0
 20 22  1  0
 22 23  1  0
 22 24  1  0
 24 25  1  0
 25 26  4  0
 26 27  1  0
 26 28  4  0
 28 29  1  0
 28 30  4  0
 30 31  1  0
 30 32  4  0
 24 33  1  0
 24 34  1  0
 19 35  1  0
 19 36  1  0
 12 37  4  0
  8 38  4  0
 38 39  1  0
 38 40  4  0
 40 41  1  0
 41 42  1  0
 42 43  1  0
 42 44  1  0
 42 45  1  0
 40 46  4  0
 46 47  1  0
 47 48  1  0
 48 49  1  0
 48 50  1  0
 48 51  1  0
  1 52  1  0
 46  5  4  0
 37  9  4  0
 32 25  4  0
M  END
>  <sample_id>  (431)
train::COc1cc(-c2noc(CCCC(=O)NCc3ccco3)n2)cc(OC)c1OC__gen0001

>  <partition>  (431)
BAT_EXTERNAL_CONFIRM

>  <method>  (431)
BA_seed193

>  <candidate>  (431)
primary

$$$$
train::COc1cc(-c2noc(CCCC(=O)NCc3ccco3)n2)cc(OC)c1OC__gen0002
     RDKit          3D

 52 54  0  0  0  0  0  0  0  0999 V2000
   -4.5049    1.8397   -1.5959 C   0  0  0  0  0  0  0  0  0  0  0  0
   -5.2795    2.2253   -2.2706 H   0  0  0  0  0  0  0  0  0  1  0  0
   -3.8995    2.6784   -1.2415 H   0  0  0  0  0  0  0  0  0  2  0  0
   -3.7438    0.9529   -2.3589 O   0  0  0  0  0  0  0  0  0  3  0  0
   -2.6882    0.3134   -1.7635 C   0  0  0  0  0  0  0  0  0  4  0  0
   -2.3278    0.5356   -0.4398 C   0  0  0  0  0  0  0  0  0  5  0  0
   -2.8980    1.2140    0.1764 H   0  0  0  0  0  0  0  0  0 50  0  0
   -1.2234   -0.1151    0.1055 C   0  0  0  0  0  0  0  0  0  6  0  0
   -0.8176    0.1691    1.4669 C   0  0  0  0  0  0  0  0  0 21  0  0
   -1.3336    1.0870    2.2556 N   0  0  0  0  0  0  0  0  0 22  0  0
   -0.5696    1.0560    3.3777 O   0  0  0  0  0  0  0  0  0 23  0  0
    0.3670    0.0958    3.1991 C   0  0  0  0  0  0  0  0  0 24  0  0
    1.3513   -0.1360    4.2670 C   0  0  0  0  0  0  0  0  0 26  0  0
    2.0756    0.6879    4.2588 H   0  0  0  0  0  0  0  0  0 27  0  0
    0.8333   -0.1315    5.2192 H   0  0  0  0  0  0  0  0  0 28  0  0
    2.0892   -1.5072    4.0782 C   0  0  0  0  0  0  0  0  0 29  0  0
    1.3693   -2.2167    3.6615 H   0  0  0  0  0  0  0  0  0 30  0  0
    2.3711   -1.8870    5.0626 H   0  0  0  0  0  0  0  0  0 31  0  0
    3.3189   -1.4414    3.1929 C   0  0  0  0  0  0  0  0  0 32  0  0
    3.0426   -1.1892    1.7190 C   0  0  0  0  0  0  0  0  0 33  0  0
    2.9037   -2.0838    0.9104 O   0  0  0  0  0  0  0  0  0 34  0  0
    3.0628    0.0888    1.3497 N   0  0  0  0  0  0  0  0  0 35  0  0
    3.0559    0.8235    2.0475 H   0  0  0  0  0  0  0  0  0 36  0  0
    2.9570    0.5333   -0.0327 C   0  0  0  0  0  0  0  0  0 37  0  0
    1.8090    1.4569   -0.2432 C   0  0  0  0  0  0  0  0  0 38  0  0
    1.0099    1.6354   -1.3336 C   0  0  0  0  0  0  0  0  0 39  0  0
    1.0761    1.1198   -2.2661 H   0  0  0  0  0  0  0  0  0 45  0  0
    0.0678    2.6399   -0.9896 C   0  0  0  0  0  0  0  0  0 40  0  0
   -0.7015    3.0509   -1.6014 H   0  0  0  0  0  0  0  0  0 44  0  0
    0.3679    2.9885    0.2896 C   0  0  0  0  0  0  0  0  0 41  0  0
   -0.0715    3.6932    0.9671 H   0  0  0  0  0  0  0  0  0 43  0  0
    1.3999    2.2815    0.7539 O   0  0  0  0  0  0  0  0  0 42  0  0
    3.8956    1.0519   -0.3113 H   0  0  0  0  0  0  0  0  0 46  0  0
    2.8651   -0.3654   -0.6376 H   0  0  0  0  0  0  0  0  0 47  0  0
    3.8274   -2.4086    3.2605 H   0  0  0  0  0  0  0  0  0 48  0  0
    4.0082   -0.6651    3.5698 H   0  0  0  0  0  0  0  0  0 49  0  0
    0.2363   -0.4709    2.0504 N   0  0  0  0  0  0  0  0  0 25  0  0
   -0.4733   -1.0050   -0.6403 C   0  0  0  0  0  0  0  0  0  7  0  0
    0.3711   -1.4710   -0.1680 H   0  0  0  0  0  0  0  0  0 20  0  0
   -0.8003   -1.2181   -1.9649 C   0  0  0  0  0  0  0  0  0  8  0  0
   -0.1273   -2.0505   -2.7818 O   0  0  0  0  0  0  0  0  0 15  0  0
    1.0291   -2.7063   -2.2908 C   0  0  0  0  0  0  0  0  0 16  0  0
    1.4214   -3.2643   -3.1401 H   0  0  0  0  0  0  0  0  0 17  0  0
    0.7664   -3.3922   -1.4876 H   0  0  0  0  0  0  0  0  0 18  0  0
    1.7682   -1.9852   -1.9350 H   0  0  0  0  0  0  0  0  0 19  0  0
   -1.9128   -0.5668   -2.5546 C   0  0  0  0  0  0  0  0  0  9  0  0
   -2.1019   -0.8651   -3.8554 O   0  0  0  0  0  0  0  0  0 10  0  0
   -3.3268   -0.6309   -4.4969 C   0  0  0  0  0  0  0  0  0 11  0  0
   -3.5139    0.4255   -4.6740 H   0  0  0  0  0  0  0  0  0 12  0  0
   -4.1630   -1.0521   -3.9427 H   0  0  0  0  0  0  0  0  0 13  0  0
   -3.2502   -1.1525   -5.4666 H   0  0  0  0  0  0  0  0  0 14  0  0
   -4.9885    1.3337   -0.7550 H   0  0  0  0  0  0  0  0  0 51  0  0
  1  2  1  0
  1  3  1  0
  1  4  1  0
  4  5  1  0
  5  6  4  0
  6  7  1  0
  6  8  4  0
  8  9  1  0
  9 10  4  0
 10 11  4  0
 11 12  4  0
 12 13  1  0
 13 14  1  0
 13 15  1  0
 13 16  1  0
 16 17  1  0
 16 18  1  0
 16 19  1  0
 19 20  1  0
 20 21  2  0
 20 22  1  0
 22 23  1  0
 22 24  1  0
 24 25  1  0
 25 26  4  0
 26 27  1  0
 26 28  4  0
 28 29  1  0
 28 30  4  0
 30 31  1  0
 30 32  4  0
 24 33  1  0
 24 34  1  0
 19 35  1  0
 19 36  1  0
 12 37  4  0
  8 38  4  0
 38 39  1  0
 38 40  4  0
 40 41  1  0
 41 42  1  0
 42 43  1  0
 42 44  1  0
 42 45  1  0
 40 46  4  0
 46 47  1  0
 47 48  1  0
 48 49  1  0
 48 50  1  0
 48 51  1  0
  1 52  1  0
 46  5  4  0
 37  9  4  0
 32 25  4  0
M  END
>  <sample_id>  (432)
train::COc1cc(-c2noc(CCCC(=O)NCc3ccco3)n2)cc(OC)c1OC__gen0002

>  <partition>  (432)
BAT_EXTERNAL_CONFIRM

>  <method>  (432)
BA_seed193

>  <candidate>  (432)
primary

$$$$
train::CN1CCN(c2ccccc2NC(=O)c2ccc(-c3ccc(Cl)c(Cl)c3)o2)CC1__gen0000
     RDKit          3D

 50 53  0  0  0  0  0  0  0  0999 V2000
    0.1863   -3.2248    0.1909 C   0  0  0  0  0  0  0  0  0  0  0  0
    0.8885   -1.9959    0.5132 N   0  0  0  0  0  0  0  0  0  1  0  0
    1.2902   -2.0484    1.9145 C   0  0  0  0  0  0  0  0  0  2  0  0
    1.8326   -2.9800    2.1304 H   0  0  0  0  0  0  0  0  0 45  0  0
    0.3741   -2.0421    2.5172 H   0  0  0  0  0  0  0  0  0 46  0  0
    2.1529   -0.8317    2.2840 C   0  0  0  0  0  0  0  0  0  3  0  0
    1.8619   -0.4412    3.2554 H   0  0  0  0  0  0  0  0  0 43  0  0
    3.2136   -1.1278    2.3527 H   0  0  0  0  0  0  0  0  0 44  0  0
    1.9737    0.1887    1.2765 N   0  0  0  0  0  0  0  0  0  4  0  0
    2.2853    1.5197    1.6369 C   0  0  0  0  0  0  0  0  0  5  0  0
    3.1845    1.8557    2.6384 C   0  0  0  0  0  0  0  0  0  6  0  0
    3.6892    1.0790    3.1973 H   0  0  0  0  0  0  0  0  0 36  0  0
    3.4390    3.1793    2.9282 C   0  0  0  0  0  0  0  0  0  7  0  0
    4.1434    3.4228    3.7231 H   0  0  0  0  0  0  0  0  0 35  0  0
    2.8171    4.1883    2.2149 C   0  0  0  0  0  0  0  0  0  8  0  0
    3.0357    5.2288    2.4329 H   0  0  0  0  0  0  0  0  0 34  0  0
    1.8977    3.8764    1.2294 C   0  0  0  0  0  0  0  0  0  9  0  0
    1.3800    4.6388    0.6791 H   0  0  0  0  0  0  0  0  0 33  0  0
    1.6248    2.5422    0.9291 C   0  0  0  0  0  0  0  0  0 10  0  0
    0.6329    2.1621    0.0427 N   0  0  0  0  0  0  0  0  0 11  0  0
    0.0800    2.8834   -0.9679 C   0  0  0  0  0  0  0  0  0 12  0  0
    0.3869    4.0093   -1.2946 O   0  0  0  0  0  0  0  0  0 13  0  0
   -1.0004    2.1606   -1.6674 C   0  0  0  0  0  0  0  0  0 14  0  0
   -1.7351    2.5574   -2.7628 C   0  0  0  0  0  0  0  0  0 15  0  0
   -1.6041    3.4789   -3.2962 H   0  0  0  0  0  0  0  0  0 31  0  0
   -2.6664    1.5415   -3.0107 C   0  0  0  0  0  0  0  0  0 16  0  0
   -3.4039    1.5251   -3.7932 H   0  0  0  0  0  0  0  0  0 30  0  0
   -2.4521    0.5742   -2.0498 C   0  0  0  0  0  0  0  0  0 17  0  0
   -3.1259   -0.6843   -1.8047 C   0  0  0  0  0  0  0  0  0 18  0  0
   -2.8176   -1.4480   -0.6844 C   0  0  0  0  0  0  0  0  0 19  0  0
   -2.0481   -1.1246   -0.0056 H   0  0  0  0  0  0  0  0  0 28  0  0
   -3.5000   -2.6202   -0.4257 C   0  0  0  0  0  0  0  0  0 20  0  0
   -3.1417   -3.5351    1.0075 Cl  0  0  0  0  0  0  0  0  0 27  0  0
   -4.4861   -3.0722   -1.2941 C   0  0  0  0  0  0  0  0  0 21  0  0
   -5.3616   -4.5189   -0.9816 Cl  0  0  0  0  0  0  0  0  0 26  0  0
   -4.7833   -2.3203   -2.4245 C   0  0  0  0  0  0  0  0  0 22  0  0
   -5.5731   -2.6574   -3.0896 H   0  0  0  0  0  0  0  0  0 25  0  0
   -4.1207   -1.1343   -2.6751 C   0  0  0  0  0  0  0  0  0 23  0  0
   -4.3782   -0.5656   -3.5645 H   0  0  0  0  0  0  0  0  0 24  0  0
   -1.4278    0.9448   -1.2433 O   0  0  0  0  0  0  0  0  0 29  0  0
    0.3362    1.2041    0.1606 H   0  0  0  0  0  0  0  0  0 32  0  0
    2.5037   -0.2365   -0.0038 C   0  0  0  0  0  0  0  0  0 37  0  0
    2.1543    0.4419   -0.7810 H   0  0  0  0  0  0  0  0  0 41  0  0
    3.6144   -0.1839    0.0018 H   0  0  0  0  0  0  0  0  0 42  0  0
    2.0427   -1.6663   -0.3044 C   0  0  0  0  0  0  0  0  0 38  0  0
    1.7575   -1.7381   -1.3536 H   0  0  0  0  0  0  0  0  0 39  0  0
    2.8556   -2.3892   -0.1176 H   0  0  0  0  0  0  0  0  0 40  0  0
   -0.3200   -3.1137   -0.7583 H   0  0  0  0  0  0  0  0  0 47  0  0
    0.8834   -4.0820    0.1599 H   0  0  0  0  0  0  0  0  0 48  0  0
   -0.5722   -3.4205    0.9380 H   0  0  0  0  0  0  0  0  0 49  0  0
  1  2  1  0
  2  3  1  0
  3  4  1  0
  3  5  1  0
  3  6  1  0
  6  7  1  0
  6  8  1  0
  6  9  1  0
  9 10  1  0
 10 11  4  0
 11 12  1  0
 11 13  4  0
 13 14  1  0
 13 15  4  0
 15 16  1  0
 15 17  4  0
 17 18  1  0
 17 19  4  0
 19 20  1  0
 20 21  1  0
 21 22  2  0
 21 23  1  0
 23 24  4  0
 24 25  1  0
 24 26  4  0
 26 27  1  0
 26 28  4  0
 28 29  1  0
 29 30  4  0
 30 31  1  0
 30 32  4  0
 32 33  1  0
 32 34  4  0
 34 35  1  0
 34 36  4  0
 36 37  1  0
 36 38  4  0
 38 39  1  0
 28 40  4  0
 20 41  1  0
  9 42  1  0
 42 43  1  0
 42 44  1  0
 42 45  1  0
 45 46  1  0
 45 47  1  0
  1 48  1  0
  1 49  1  0
  1 50  1  0
 45  2  1  0
 19 10  4  0
 40 23  4  0
 38 29  4  0
M  END
>  <sample_id>  (433)
train::CN1CCN(c2ccccc2NC(=O)c2ccc(-c3ccc(Cl)c(Cl)c3)o2)CC1__gen0000

>  <partition>  (433)
BAT_EXTERNAL_CONFIRM

>  <method>  (433)
BA_seed193

>  <candidate>  (433)
primary

$$$$
train::CN1CCN(c2ccccc2NC(=O)c2ccc(-c3ccc(Cl)c(Cl)c3)o2)CC1__gen0001
     RDKit          3D

 50 53  0  0  0  0  0  0  0  0999 V2000
   -3.8889    3.1232   -0.6725 C   0  0  0  0  0  0  0  0  0  0  0  0
   -2.6576    2.4409   -0.3202 N   0  0  0  0  0  0  0  0  0  1  0  0
   -2.1705    1.5724   -1.3697 C   0  0  0  0  0  0  0  0  0  2  0  0
   -2.9756    0.8923   -1.6689 H   0  0  0  0  0  0  0  0  0 45  0  0
   -1.8801    2.1589   -2.2634 H   0  0  0  0  0  0  0  0  0 46  0  0
   -0.9686    0.7620   -0.8621 C   0  0  0  0  0  0  0  0  0  3  0  0
   -0.6219    0.0929   -1.6479 H   0  0  0  0  0  0  0  0  0 43  0  0
   -1.3167    0.1786   -0.0065 H   0  0  0  0  0  0  0  0  0 44  0  0
    0.1071    1.6250   -0.4168 N   0  0  0  0  0  0  0  0  0  4  0  0
    1.0647    1.9888   -1.3927 C   0  0  0  0  0  0  0  0  0  5  0  0
    1.2362    3.2859   -1.8786 C   0  0  0  0  0  0  0  0  0  6  0  0
    0.6067    4.0821   -1.5198 H   0  0  0  0  0  0  0  0  0 36  0  0
    2.1942    3.5602   -2.8299 C   0  0  0  0  0  0  0  0  0  7  0  0
    2.3010    4.5690   -3.2135 H   0  0  0  0  0  0  0  0  0 35  0  0
    3.0066    2.5380   -3.3232 C   0  0  0  0  0  0  0  0  0  8  0  0
    3.7513    2.7429   -4.0741 H   0  0  0  0  0  0  0  0  0 34  0  0
    2.8916    1.2670   -2.8068 C   0  0  0  0  0  0  0  0  0  9  0  0
    3.5393    0.4774   -3.1498 H   0  0  0  0  0  0  0  0  0 33  0  0
    1.9487    0.9818   -1.8331 C   0  0  0  0  0  0  0  0  0 10  0  0
    1.8374   -0.2602   -1.2135 N   0  0  0  0  0  0  0  0  0 11  0  0
    2.4668   -1.4272   -1.4856 C   0  0  0  0  0  0  0  0  0 12  0  0
    3.2606   -1.6116   -2.3911 O   0  0  0  0  0  0  0  0  0 13  0  0
    2.0848   -2.5015   -0.5583 C   0  0  0  0  0  0  0  0  0 14  0  0
    2.4838   -3.8250   -0.5184 C   0  0  0  0  0  0  0  0  0 15  0  0
    3.1811   -4.2848   -1.1805 H   0  0  0  0  0  0  0  0  0 31  0  0
    1.8026   -4.4023    0.5684 C   0  0  0  0  0  0  0  0  0 16  0  0
    1.8771   -5.4207    0.8932 H   0  0  0  0  0  0  0  0  0 30  0  0
    1.0150   -3.4076    1.1216 C   0  0  0  0  0  0  0  0  0 17  0  0
    0.1191   -3.4063    2.2540 C   0  0  0  0  0  0  0  0  0 18  0  0
   -0.1645   -4.5965    2.9317 C   0  0  0  0  0  0  0  0  0 19  0  0
    0.2978   -5.5178    2.6257 H   0  0  0  0  0  0  0  0  0 28  0  0
   -1.0392   -4.5860    3.9999 C   0  0  0  0  0  0  0  0  0 20  0  0
   -1.3662   -6.0590    4.8394 Cl  0  0  0  0  0  0  0  0  0 27  0  0
   -1.6353   -3.4007    4.4190 C   0  0  0  0  0  0  0  0  0 21  0  0
   -2.7237   -3.3888    5.7493 Cl  0  0  0  0  0  0  0  0  0 26  0  0
   -1.3616   -2.2203    3.7435 C   0  0  0  0  0  0  0  0  0 22  0  0
   -1.8353   -1.3072    4.0688 H   0  0  0  0  0  0  0  0  0 25  0  0
   -0.4941   -2.2200    2.6718 C   0  0  0  0  0  0  0  0  0 23  0  0
   -0.2782   -1.2997    2.1512 H   0  0  0  0  0  0  0  0  0 24  0  0
    1.1996   -2.2562    0.4337 O   0  0  0  0  0  0  0  0  0 29  0  0
    1.2174   -0.2593   -0.4166 H   0  0  0  0  0  0  0  0  0 32  0  0
   -0.3780    2.6160    0.5221 C   0  0  0  0  0  0  0  0  0 37  0  0
    0.4422    3.2983    0.7510 H   0  0  0  0  0  0  0  0  0 41  0  0
   -0.6556    2.0925    1.4388 H   0  0  0  0  0  0  0  0  0 42  0  0
   -1.6115    3.3826    0.0433 C   0  0  0  0  0  0  0  0  0 38  0  0
   -1.3367    4.0378   -0.7927 H   0  0  0  0  0  0  0  0  0 39  0  0
   -1.9776    4.0009    0.8746 H   0  0  0  0  0  0  0  0  0 40  0  0
   -3.7438    3.7980   -1.5342 H   0  0  0  0  0  0  0  0  0 47  0  0
   -4.6377    2.3897   -0.9377 H   0  0  0  0  0  0  0  0  0 48  0  0
   -4.2135    3.7037    0.1771 H   0  0  0  0  0  0  0  0  0 49  0  0
  1  2  1  0
  2  3  1  0
  3  4  1  0
  3  5  1  0
  3  6  1  0
  6  7  1  0
  6  8  1  0
  6  9  1  0
  9 10  1  0
 10 11  4  0
 11 12  1  0
 11 13  4  0
 13 14  1  0
 13 15  4  0
 15 16  1  0
 15 17  4  0
 17 18  1  0
 17 19  4  0
 19 20  1  0
 20 21  1  0
 21 22  2  0
 21 23  1  0
 23 24  4  0
 24 25  1  0
 24 26  4  0
 26 27  1  0
 26 28  4  0
 28 29  1  0
 29 30  4  0
 30 31  1  0
 30 32  4  0
 32 33  1  0
 32 34  4  0
 34 35  1  0
 34 36  4  0
 36 37  1  0
 36 38  4  0
 38 39  1  0
 28 40  4  0
 20 41  1  0
  9 42  1  0
 42 43  1  0
 42 44  1  0
 42 45  1  0
 45 46  1  0
 45 47  1  0
  1 48  1  0
  1 49  1  0
  1 50  1  0
 45  2  1  0
 19 10  4  0
 40 23  4  0
 38 29  4  0
M  END
>  <sample_id>  (434)
train::CN1CCN(c2ccccc2NC(=O)c2ccc(-c3ccc(Cl)c(Cl)c3)o2)CC1__gen0001

>  <partition>  (434)
BAT_EXTERNAL_CONFIRM

>  <method>  (434)
BA_seed193

>  <candidate>  (434)
primary

$$$$
train::CN1CCN(c2ccccc2NC(=O)c2ccc(-c3ccc(Cl)c(Cl)c3)o2)CC1__gen0002
     RDKit          3D

 50 53  0  0  0  0  0  0  0  0999 V2000
    1.8824    1.8917   -2.6672 C   0  0  0  0  0  0  0  0  0  0  0  0
    1.0095    0.7236   -2.6404 N   0  0  0  0  0  0  0  0  0  1  0  0
    1.1083    0.0057   -1.3961 C   0  0  0  0  0  0  0  0  0  2  0  0
    2.1531   -0.2778   -1.2424 H   0  0  0  0  0  0  0  0  0 45  0  0
    0.7555    0.5967   -0.5409 H   0  0  0  0  0  0  0  0  0 46  0  0
    0.2775   -1.2849   -1.4895 C   0  0  0  0  0  0  0  0  0  3  0  0
    0.6785   -1.8872   -2.3227 H   0  0  0  0  0  0  0  0  0 43  0  0
    0.3621   -1.8594   -0.5734 H   0  0  0  0  0  0  0  0  0 44  0  0
   -1.1009   -0.9202   -1.7371 N   0  0  0  0  0  0  0  0  0  4  0  0
   -2.0836   -1.8876   -1.4634 C   0  0  0  0  0  0  0  0  0  5  0  0
   -2.7272   -2.6356   -2.4477 C   0  0  0  0  0  0  0  0  0  6  0  0
   -2.4719   -2.4675   -3.4928 H   0  0  0  0  0  0  0  0  0 36  0  0
   -3.7206   -3.5419   -2.1213 C   0  0  0  0  0  0  0  0  0  7  0  0
   -4.2032   -4.1121   -2.9074 H   0  0  0  0  0  0  0  0  0 35  0  0
   -4.0714   -3.7407   -0.7994 C   0  0  0  0  0  0  0  0  0  8  0  0
   -4.8468   -4.4493   -0.5366 H   0  0  0  0  0  0  0  0  0 34  0  0
   -3.4458   -3.0169    0.1940 C   0  0  0  0  0  0  0  0  0  9  0  0
   -3.7302   -3.1334    1.2319 H   0  0  0  0  0  0  0  0  0 33  0  0
   -2.4558   -2.0898   -0.1139 C   0  0  0  0  0  0  0  0  0 10  0  0
   -1.7986   -1.3267    0.8295 N   0  0  0  0  0  0  0  0  0 11  0  0
   -2.1300   -1.0653    2.1425 C   0  0  0  0  0  0  0  0  0 12  0  0
   -3.0879   -1.5329    2.7241 O   0  0  0  0  0  0  0  0  0 13  0  0
   -1.1917   -0.1295    2.7609 C   0  0  0  0  0  0  0  0  0 14  0  0
   -1.3015    0.5626    3.9403 C   0  0  0  0  0  0  0  0  0 15  0  0
   -2.1178    0.5280    4.6292 H   0  0  0  0  0  0  0  0  0 31  0  0
   -0.1319    1.3556    4.0480 C   0  0  0  0  0  0  0  0  0 16  0  0
    0.1188    2.0351    4.8403 H   0  0  0  0  0  0  0  0  0 30  0  0
    0.6352    1.0602    2.9408 C   0  0  0  0  0  0  0  0  0 17  0  0
    1.9380    1.5272    2.5208 C   0  0  0  0  0  0  0  0  0 18  0  0
    2.4541    2.7306    3.0038 C   0  0  0  0  0  0  0  0  0 19  0  0
    1.8911    3.3260    3.7006 H   0  0  0  0  0  0  0  0  0 28  0  0
    3.6950    3.1583    2.5776 C   0  0  0  0  0  0  0  0  0 20  0  0
    4.3138    4.6626    3.1751 Cl  0  0  0  0  0  0  0  0  0 27  0  0
    4.4468    2.4040    1.6854 C   0  0  0  0  0  0  0  0  0 21  0  0
    5.9863    2.9632    1.1550 Cl  0  0  0  0  0  0  0  0  0 26  0  0
    3.9451    1.2104    1.2187 C   0  0  0  0  0  0  0  0  0 22  0  0
    4.5292    0.6134    0.5268 H   0  0  0  0  0  0  0  0  0 25  0  0
    2.7079    0.7671    1.6360 C   0  0  0  0  0  0  0  0  0 23  0  0
    2.3232   -0.1760    1.2827 H   0  0  0  0  0  0  0  0  0 24  0  0
   -0.0181    0.1680    2.1617 O   0  0  0  0  0  0  0  0  0 29  0  0
   -1.0436   -0.7710    0.4290 H   0  0  0  0  0  0  0  0  0 32  0  0
   -1.2010   -0.2042   -2.9947 C   0  0  0  0  0  0  0  0  0 37  0  0
   -0.8169   -0.8039   -3.8331 H   0  0  0  0  0  0  0  0  0 41  0  0
   -2.2515    0.0505   -3.1747 H   0  0  0  0  0  0  0  0  0 42  0  0
   -0.3708    1.0786   -2.8892 C   0  0  0  0  0  0  0  0  0 38  0  0
   -0.7907    1.7079   -2.0904 H   0  0  0  0  0  0  0  0  0 39  0  0
   -0.4185    1.6193   -3.8288 H   0  0  0  0  0  0  0  0  0 40  0  0
    1.6440    2.6135   -1.8753 H   0  0  0  0  0  0  0  0  0 47  0  0
    1.7619    2.3887   -3.6248 H   0  0  0  0  0  0  0  0  0 48  0  0
    2.9106    1.5656   -2.5517 H   0  0  0  0  0  0  0  0  0 49  0  0
  1  2  1  0
  2  3  1  0
  3  4  1  0
  3  5  1  0
  3  6  1  0
  6  7  1  0
  6  8  1  0
  6  9  1  0
  9 10  1  0
 10 11  4  0
 11 12  1  0
 11 13  4  0
 13 14  1  0
 13 15  4  0
 15 16  1  0
 15 17  4  0
 17 18  1  0
 17 19  4  0
 19 20  1  0
 20 21  1  0
 21 22  2  0
 21 23  1  0
 23 24  4  0
 24 25  1  0
 24 26  4  0
 26 27  1  0
 26 28  4  0
 28 29  1  0
 29 30  4  0
 30 31  1  0
 30 32  4  0
 32 33  1  0
 32 34  4  0
 34 35  1  0
 34 36  4  0
 36 37  1  0
 36 38  4  0
 38 39  1  0
 28 40  4  0
 20 41  1  0
  9 42  1  0
 42 43  1  0
 42 44  1  0
 42 45  1  0
 45 46  1  0
 45 47  1  0
  1 48  1  0
  1 49  1  0
  1 50  1  0
 45  2  1  0
 19 10  4  0
 40 23  4  0
 38 29  4  0
M  END
>  <sample_id>  (435)
train::CN1CCN(c2ccccc2NC(=O)c2ccc(-c3ccc(Cl)c(Cl)c3)o2)CC1__gen0002

>  <partition>  (435)
BAT_EXTERNAL_CONFIRM

>  <method>  (435)
BA_seed193

>  <candidate>  (435)
primary

$$$$
train::CC(C)OC(=O)CC(=O)CSc1nc2c(c(-c3cccs3)c1C#N)CCC2__gen0000
     RDKit          3D

 47 49  0  0  0  0  0  0  0  0999 V2000
    4.7763    1.8148    0.6437 C   0  0  0  0  0  0  0  0  0  0  0  0
    3.8580    1.0037   -0.2452 C   0  0  1  0  0  0  0  0  0  1  0  0
    4.5160    0.6023   -1.5395 C   0  0  0  0  0  0  0  0  0  2  0  0
    3.8317    0.0065   -2.1382 H   0  0  0  0  0  0  0  0  0  3  0  0
    5.3883    0.0028   -1.3380 H   0  0  0  0  0  0  0  0  0  4  0  0
    4.8122    1.4753   -2.1024 H   0  0  0  0  0  0  0  0  0  5  0  0
    2.9340    1.5731   -0.4606 H   0  0  0  0  0  0  0  0  0  6  0  0
    3.4473   -0.1743    0.4806 O   0  0  0  0  0  0  0  0  0  7  0  0
    2.1661   -0.4336    0.5911 C   0  0  0  0  0  0  0  0  0  8  0  0
    1.3239    0.2958    0.1450 O   0  0  0  0  0  0  0  0  0  9  0  0
    1.9610   -1.7099    1.3882 C   0  0  0  0  0  0  0  0  0 10  0  0
    1.6471   -1.4437    2.3862 H   0  0  0  0  0  0  0  0  0 11  0  0
    2.8856   -2.2688    1.4592 H   0  0  0  0  0  0  0  0  0 12  0  0
    0.9284   -2.7369    0.8259 C   0  0  0  0  0  0  0  0  0 13  0  0
    0.3274   -3.4424    1.6376 O   0  0  0  0  0  0  0  0  0 14  0  0
    1.2419   -3.2335   -0.5971 C   0  0  0  0  0  0  0  0  0 15  0  0
    2.3192   -3.3015   -0.7366 H   0  0  0  0  0  0  0  0  0 16  0  0
    0.7997   -4.2234   -0.7281 H   0  0  0  0  0  0  0  0  0 17  0  0
    0.6024   -2.1892   -1.9512 S   0  0  0  0  0  0  0  0  0 18  0  0
   -0.5275   -1.3373   -0.9750 C   0  0  0  0  0  0  0  0  0 19  0  0
   -0.4364   -1.6110    0.3259 N   0  0  0  0  0  0  0  0  0 20  0  0
   -1.2465   -0.9152    1.1367 C   0  0  0  0  0  0  0  0  0 21  0  0
   -2.2106   -0.0201    0.6994 C   0  0  0  0  0  0  0  0  0 22  0  0
   -2.3048    0.2879   -0.6691 C   0  0  0  0  0  0  0  0  0 23  0  0
   -3.2070    1.2495   -1.2439 C   0  0  0  0  0  0  0  0  0 27  0  0
   -2.9664    2.1652   -2.2424 C   0  0  0  0  0  0  0  0  0 28  0  0
   -2.0036    2.2528   -2.7217 H   0  0  0  0  0  0  0  0  0 34  0  0
   -4.0786    2.9248   -2.5977 C   0  0  0  0  0  0  0  0  0 29  0  0
   -4.0658    3.6866   -3.3508 H   0  0  0  0  0  0  0  0  0 33  0  0
   -5.1697    2.6366   -1.8441 C   0  0  0  0  0  0  0  0  0 30  0  0
   -6.1569    3.0614   -1.8895 H   0  0  0  0  0  0  0  0  0 32  0  0
   -4.8740    1.3875   -0.7111 S   0  0  0  0  0  0  0  0  0 31  0  0
   -1.4196   -0.3968   -1.5275 C   0  0  0  0  0  0  0  0  0 24  0  0
   -1.4325   -0.1992   -2.9218 C   0  0  0  0  0  0  0  0  0 25  0  0
   -1.4173   -0.0706   -4.0580 N   0  0  0  0  0  0  0  0  0 26  0  0
   -3.0118    0.4960    1.8575 C   0  0  0  0  0  0  0  0  0 35  0  0
   -4.0980    0.4966    1.6750 H   0  0  0  0  0  0  0  0  0 36  0  0
   -2.6951    1.5205    2.0918 H   0  0  0  0  0  0  0  0  0 37  0  0
   -2.6331   -0.4606    2.9940 C   0  0  0  0  0  0  0  0  0 38  0  0
   -3.4297   -1.2030    3.0758 H   0  0  0  0  0  0  0  0  0 39  0  0
   -2.5397   -0.0054    3.9824 H   0  0  0  0  0  0  0  0  0 40  0  0
   -1.2645   -1.0550    2.6263 C   0  0  0  0  0  0  0  0  0 41  0  0
   -0.4572   -0.4726    3.0604 H   0  0  0  0  0  0  0  0  0 42  0  0
   -1.1317   -2.0950    2.9154 H   0  0  0  0  0  0  0  0  0 43  0  0
    5.0905    2.7232    0.1339 H   0  0  0  0  0  0  0  0  0 44  0  0
    4.2654    2.0943    1.5595 H   0  0  0  0  0  0  0  0  0 45  0  0
    5.6555    1.2417    0.8981 H   0  0  0  0  0  0  0  0  0 46  0  0
  1  2  1  0
  2  3  1  0
  3  4  1  0
  3  5  1  0
  3  6  1  0
  2  7  1  6
  2  8  1  0
  8  9  1  0
  9 10  2  0
  9 11  1  0
 11 12  1  0
 11 13  1  0
 11 14  1  0
 14 15  2  0
 14 16  1  0
 16 17  1  0
 16 18  1  0
 16 19  1  0
 19 20  1  0
 20 21  4  0
 21 22  4  0
 22 23  4  0
 23 24  4  0
 24 25  1  0
 25 26  4  0
 26 27  1  0
 26 28  4  0
 28 29  1  0
 28 30  4  0
 30 31  1  0
 30 32  4  0
 24 33  4  0
 33 34  1  0
 34 35  3  0
 23 36  1  0
 36 37  1  0
 36 38  1  0
 36 39  1  0
 39 40  1  0
 39 41  1  0
 39 42  1  0
 42 43  1  0
 42 44  1  0
  1 45  1  0
  1 46  1  0
  1 47  1  0
 33 20  4  0
 42 22  1  0
 32 25  4  0
M  END
>  <sample_id>  (436)
train::CC(C)OC(=O)CC(=O)CSc1nc2c(c(-c3cccs3)c1C#N)CCC2__gen0000

>  <partition>  (436)
BAT_EXTERNAL_CONFIRM

>  <method>  (436)
BA_seed193

>  <candidate>  (436)
primary

$$$$
train::CC(C)OC(=O)CC(=O)CSc1nc2c(c(-c3cccs3)c1C#N)CCC2__gen0001
     RDKit          3D

 47 49  0  0  0  0  0  0  0  0999 V2000
   -1.5738    2.7335   -2.5409 C   0  0  0  0  0  0  0  0  0  0  0  0
   -1.0229    1.3135   -2.4841 C   0  0  1  0  0  0  0  0  0  1  0  0
   -1.5122    0.4769   -3.6650 C   0  0  0  0  0  0  0  0  0  2  0  0
   -1.2227    0.9567   -4.5961 H   0  0  0  0  0  0  0  0  0  3  0  0
   -2.5985    0.3885   -3.6350 H   0  0  0  0  0  0  0  0  0  4  0  0
   -1.0868   -0.5196   -3.6221 H   0  0  0  0  0  0  0  0  0  5  0  0
   -1.3205    0.8303   -1.5435 H   0  0  0  0  0  0  0  0  0  6  0  0
    0.3960    1.3837   -2.5204 O   0  0  0  0  0  0  0  0  0  7  0  0
    1.1000    0.4478   -1.8875 C   0  0  0  0  0  0  0  0  0  8  0  0
    0.6295   -0.4527   -1.2368 O   0  0  0  0  0  0  0  0  0  9  0  0
    2.5840    0.6275   -2.1578 C   0  0  0  0  0  0  0  0  0 10  0  0
    2.7748    1.6929   -2.3115 H   0  0  0  0  0  0  0  0  0 11  0  0
    2.8036    0.0697   -3.0694 H   0  0  0  0  0  0  0  0  0 12  0  0
    3.4777    0.0777   -1.0441 C   0  0  0  0  0  0  0  0  0 13  0  0
    3.8188   -1.0782   -1.0150 O   0  0  0  0  0  0  0  0  0 14  0  0
    4.0070    1.1062   -0.0827 C   0  0  0  0  0  0  0  0  0 15  0  0
    4.6916    1.7940   -0.5819 H   0  0  0  0  0  0  0  0  0 16  0  0
    4.5213    0.6007    0.7330 H   0  0  0  0  0  0  0  0  0 17  0  0
    2.6633    2.1386    0.5607 S   0  0  0  0  0  0  0  0  0 18  0  0
    1.6505    0.8478    1.1718 C   0  0  0  0  0  0  0  0  0 19  0  0
    2.2541   -0.2645    1.5185 N   0  0  0  0  0  0  0  0  0 20  0  0
    1.4907   -1.2931    1.8927 C   0  0  0  0  0  0  0  0  0 21  0  0
    0.1041   -1.2559    1.9681 C   0  0  0  0  0  0  0  0  0 22  0  0
   -0.5518   -0.0571    1.6553 C   0  0  0  0  0  0  0  0  0 23  0  0
   -1.9918    0.0613    1.6639 C   0  0  0  0  0  0  0  0  0 27  0  0
   -2.9119   -0.8391    1.1688 C   0  0  0  0  0  0  0  0  0 28  0  0
   -2.6063   -1.7555    0.6730 H   0  0  0  0  0  0  0  0  0 34  0  0
   -4.2373   -0.4292    1.3114 C   0  0  0  0  0  0  0  0  0 29  0  0
   -5.0699   -0.9967    0.9655 H   0  0  0  0  0  0  0  0  0 33  0  0
   -4.3314    0.7782    1.9283 C   0  0  0  0  0  0  0  0  0 30  0  0
   -5.2177    1.3388    2.1799 H   0  0  0  0  0  0  0  0  0 32  0  0
   -2.8207    1.4286    2.3519 S   0  0  0  0  0  0  0  0  0 31  0  0
    0.2555    1.0242    1.2514 C   0  0  0  0  0  0  0  0  0 24  0  0
   -0.2885    2.2583    0.8341 C   0  0  0  0  0  0  0  0  0 25  0  0
   -0.6715    3.2617    0.4360 N   0  0  0  0  0  0  0  0  0 26  0  0
   -0.4421   -2.5716    2.4230 C   0  0  0  0  0  0  0  0  0 35  0  0
   -0.7514   -2.5043    3.4704 H   0  0  0  0  0  0  0  0  0 36  0  0
   -1.3035   -2.8848    1.8275 H   0  0  0  0  0  0  0  0  0 37  0  0
    0.7622   -3.5164    2.2338 C   0  0  0  0  0  0  0  0  0 38  0  0
    0.6260   -3.9737    1.2562 H   0  0  0  0  0  0  0  0  0 39  0  0
    0.8106   -4.2965    2.9804 H   0  0  0  0  0  0  0  0  0 40  0  0
    2.0182   -2.6375    2.2832 C   0  0  0  0  0  0  0  0  0 41  0  0
    2.4310   -2.5809    3.2959 H   0  0  0  0  0  0  0  0  0 42  0  0
    2.8015   -2.9665    1.6105 H   0  0  0  0  0  0  0  0  0 43  0  0
   -1.3035    3.1959   -3.4824 H   0  0  0  0  0  0  0  0  0 44  0  0
   -1.1747    3.3254   -1.7243 H   0  0  0  0  0  0  0  0  0 45  0  0
   -2.6605    2.7151   -2.4448 H   0  0  0  0  0  0  0  0  0 46  0  0
  1  2  1  0
  2  3  1  0
  3  4  1  0
  3  5  1  0
  3  6  1  0
  2  7  1  1
  2  8  1  0
  8  9  1  0
  9 10  2  0
  9 11  1  0
 11 12  1  0
 11 13  1  0
 11 14  1  0
 14 15  2  0
 14 16  1  0
 16 17  1  0
 16 18  1  0
 16 19  1  0
 19 20  1  0
 20 21  4  0
 21 22  4  0
 22 23  4  0
 23 24  4  0
 24 25  1  0
 25 26  4  0
 26 27  1  0
 26 28  4  0
 28 29  1  0
 28 30  4  0
 30 31  1  0
 30 32  4  0
 24 33  4  0
 33 34  1  0
 34 35  3  0
 23 36  1  0
 36 37  1  0
 36 38  1  0
 36 39  1  0
 39 40  1  0
 39 41  1  0
 39 42  1  0
 42 43  1  0
 42 44  1  0
  1 45  1  0
  1 46  1  0
  1 47  1  0
 33 20  4  0
 42 22  1  0
 32 25  4  0
M  END
>  <sample_id>  (437)
train::CC(C)OC(=O)CC(=O)CSc1nc2c(c(-c3cccs3)c1C#N)CCC2__gen0001

>  <partition>  (437)
BAT_EXTERNAL_CONFIRM

>  <method>  (437)
BA_seed193

>  <candidate>  (437)
primary

$$$$
train::CC(C)OC(=O)CC(=O)CSc1nc2c(c(-c3cccs3)c1C#N)CCC2__gen0002
     RDKit          3D

 47 49  0  0  0  0  0  0  0  0999 V2000
   -0.6302    2.4833   -1.9605 C   0  0  0  0  0  0  0  0  0  0  0  0
    0.3508    2.1161   -3.0880 C   0  0  1  0  0  0  0  0  0  1  0  0
    0.9984    3.3486   -3.6839 C   0  0  0  0  0  0  0  0  0  2  0  0
    1.6547    3.0537   -4.4951 H   0  0  0  0  0  0  0  0  0  3  0  0
    0.2517    4.0356   -4.0584 H   0  0  0  0  0  0  0  0  0  4  0  0
    1.5890    3.8507   -2.9179 H   0  0  0  0  0  0  0  0  0  5  0  0
   -0.2118    1.5664   -3.8508 H   0  0  0  0  0  0  0  0  0  6  0  0
    1.4145    1.2853   -2.6231 O   0  0  0  0  0  0  0  0  0  7  0  0
    1.1803    0.0855   -2.1254 C   0  0  0  0  0  0  0  0  0  8  0  0
    0.0879   -0.3821   -1.9442 O   0  0  0  0  0  0  0  0  0  9  0  0
    2.4956   -0.6258   -1.8588 C   0  0  0  0  0  0  0  0  0 10  0  0
    2.3293   -1.6985   -1.9178 H   0  0  0  0  0  0  0  0  0 11  0  0
    3.2195   -0.3225   -2.6062 H   0  0  0  0  0  0  0  0  0 12  0  0
    3.1289   -0.2315   -0.5104 C   0  0  0  0  0  0  0  0  0 13  0  0
    3.4478    0.9028   -0.2348 O   0  0  0  0  0  0  0  0  0 14  0  0
    3.7843   -1.4108    0.1844 C   0  0  0  0  0  0  0  0  0 15  0  0
    4.6309   -1.7896   -0.3880 H   0  0  0  0  0  0  0  0  0 16  0  0
    4.1067   -1.1291    1.1904 H   0  0  0  0  0  0  0  0  0 17  0  0
    2.6043   -2.8158    0.3147 S   0  0  0  0  0  0  0  0  0 18  0  0
    1.2444   -1.8123    0.7721 C   0  0  0  0  0  0  0  0  0 19  0  0
    1.5378   -0.5314    0.8143 N   0  0  0  0  0  0  0  0  0 20  0  0
    0.5531    0.2946    1.1863 C   0  0  0  0  0  0  0  0  0 21  0  0
   -0.7116   -0.1154    1.5665 C   0  0  0  0  0  0  0  0  0 22  0  0
   -1.0460   -1.4764    1.5080 C   0  0  0  0  0  0  0  0  0 23  0  0
   -2.3497   -2.0035    1.8051 C   0  0  0  0  0  0  0  0  0 27  0  0
   -3.0346   -3.0223    1.1932 C   0  0  0  0  0  0  0  0  0 28  0  0
   -2.6493   -3.5463    0.3390 H   0  0  0  0  0  0  0  0  0 34  0  0
   -4.2738   -3.3026    1.7818 C   0  0  0  0  0  0  0  0  0 29  0  0
   -4.9443   -4.0635    1.4159 H   0  0  0  0  0  0  0  0  0 33  0  0
   -4.5420   -2.5115    2.8528 C   0  0  0  0  0  0  0  0  0 30  0  0
   -5.4116   -2.5063    3.4736 H   0  0  0  0  0  0  0  0  0 32  0  0
   -3.2684   -1.4021    3.1757 S   0  0  0  0  0  0  0  0  0 31  0  0
   -0.0156   -2.3497    1.1077 C   0  0  0  0  0  0  0  0  0 24  0  0
   -0.1980   -3.7422    0.9925 C   0  0  0  0  0  0  0  0  0 25  0  0
   -0.3577   -4.8696    0.8941 N   0  0  0  0  0  0  0  0  0 26  0  0
   -1.5360    1.0675    1.9929 C   0  0  0  0  0  0  0  0  0 35  0  0
   -2.0792    0.8757    2.9241 H   0  0  0  0  0  0  0  0  0 36  0  0
   -2.2644    1.3236    1.2204 H   0  0  0  0  0  0  0  0  0 37  0  0
   -0.4891    2.1875    2.1655 C   0  0  0  0  0  0  0  0  0 38  0  0
   -0.7814    3.1944    1.8468 H   0  0  0  0  0  0  0  0  0 39  0  0
   -0.3141    2.2299    3.2363 H   0  0  0  0  0  0  0  0  0 40  0  0
    0.7263    1.7753    1.3156 C   0  0  0  0  0  0  0  0  0 41  0  0
    1.6929    2.0335    1.7216 H   0  0  0  0  0  0  0  0  0 42  0  0
    0.6958    2.2328    0.3264 H   0  0  0  0  0  0  0  0  0 43  0  0
   -1.0618    1.5853   -1.5265 H   0  0  0  0  0  0  0  0  0 44  0  0
   -1.4431    3.0983   -2.3544 H   0  0  0  0  0  0  0  0  0 45  0  0
   -0.1113    3.0347   -1.1736 H   0  0  0  0  0  0  0  0  0 46  0  0
  1  2  1  0
  2  3  1  0
  3  4  1  0
  3  5  1  0
  3  6  1  0
  2  7  1  6
  2  8  1  0
  8  9  1  0
  9 10  2  0
  9 11  1  0
 11 12  1  0
 11 13  1  0
 11 14  1  0
 14 15  2  0
 14 16  1  0
 16 17  1  0
 16 18  1  0
 16 19  1  0
 19 20  1  0
 20 21  4  0
 21 22  4  0
 22 23  4  0
 23 24  4  0
 24 25  1  0
 25 26  4  0
 26 27  1  0
 26 28  4  0
 28 29  1  0
 28 30  4  0
 30 31  1  0
 30 32  4  0
 24 33  4  0
 33 34  1  0
 34 35  3  0
 23 36  1  0
 36 37  1  0
 36 38  1  0
 36 39  1  0
 39 40  1  0
 39 41  1  0
 39 42  1  0
 42 43  1  0
 42 44  1  0
  1 45  1  0
  1 46  1  0
  1 47  1  0
 33 20  4  0
 42 22  1  0
 32 25  4  0
M  END
>  <sample_id>  (438)
train::CC(C)OC(=O)CC(=O)CSc1nc2c(c(-c3cccs3)c1C#N)CCC2__gen0002

>  <partition>  (438)
BAT_EXTERNAL_CONFIRM

>  <method>  (438)
BA_seed193

>  <candidate>  (438)
primary

$$$$
train::CCC(C(=O)NC1CCCC1)N(C(=O)Cn1nnc(-c2ccc(C)o2)n1)c1cccc(O)c1__gen0000
     RDKit          3D

 61 64  0  0  0  0  0  0  0  0999 V2000
   -4.6995    1.0321   -0.7007 C   0  0  0  0  0  0  0  0  0  0  0  0
   -3.6983    0.5699    0.3392 C   0  0  0  0  0  0  0  0  0  1  0  0
   -3.5548   -0.5176    0.2819 H   0  0  0  0  0  0  0  0  0  2  0  0
   -2.3441    1.2708    0.2011 C   0  0  2  0  0  0  0  0  0  3  0  0
   -1.6339    0.9374   -1.0428 N   0  0  0  0  0  0  0  0  0  4  0  0
   -0.8712    1.8966   -1.6122 C   0  0  0  0  0  0  0  0  0  5  0  0
   -0.8445    3.0530   -1.2271 O   0  0  0  0  0  0  0  0  0  6  0  0
   -0.0125    1.4756   -2.8312 C   0  0  0  0  0  0  0  0  0  7  0  0
    0.6871    0.2692   -2.5906 N   0  0  0  0  0  0  0  0  0  8  0  0
    0.8202   -0.6699   -3.4998 N   0  0  0  0  0  0  0  0  0  9  0  0
    1.4308   -1.6542   -2.9522 N   0  0  0  0  0  0  0  0  0 10  0  0
    1.6893   -1.2725   -1.6767 C   0  0  0  0  0  0  0  0  0 11  0  0
    2.2756   -2.1284   -0.6875 C   0  0  0  0  0  0  0  0  0 13  0  0
    2.8026   -3.3884   -0.8391 C   0  0  0  0  0  0  0  0  0 14  0  0
    2.9152   -3.9162   -1.7701 H   0  0  0  0  0  0  0  0  0 23  0  0
    3.1476   -3.8221    0.4559 C   0  0  0  0  0  0  0  0  0 15  0  0
    3.5795   -4.7511    0.7340 H   0  0  0  0  0  0  0  0  0 22  0  0
    2.7939   -2.8004    1.3030 C   0  0  0  0  0  0  0  0  0 16  0  0
    2.8487   -2.6787    2.7928 C   0  0  0  0  0  0  0  0  0 18  0  0
    3.1999   -1.6926    3.0735 H   0  0  0  0  0  0  0  0  0 19  0  0
    1.8510   -2.8210    3.2180 H   0  0  0  0  0  0  0  0  0 20  0  0
    3.5151   -3.4458    3.1908 H   0  0  0  0  0  0  0  0  0 21  0  0
    2.2831   -1.7626    0.6078 O   0  0  0  0  0  0  0  0  0 17  0  0
    1.2138   -0.0568   -1.4360 N   0  0  0  0  0  0  0  0  0 12  0  0
    0.6986    2.2991   -2.9956 H   0  0  0  0  0  0  0  0  0 24  0  0
   -0.6266    1.3532   -3.7236 H   0  0  0  0  0  0  0  0  0 25  0  0
   -1.7082   -0.3956   -1.5111 C   0  0  0  0  0  0  0  0  0 26  0  0
   -1.2307   -1.4267   -0.7087 C   0  0  0  0  0  0  0  0  0 27  0  0
   -0.7838   -1.2095    0.2396 H   0  0  0  0  0  0  0  0  0 37  0  0
   -1.2702   -2.7332   -1.1707 C   0  0  0  0  0  0  0  0  0 28  0  0
   -0.7560   -3.7757   -0.4576 O   0  0  0  0  0  0  0  0  0 35  0  0
   -0.3015   -3.4227    0.3295 H   0  0  0  0  0  0  0  0  0 36  0  0
   -1.8274   -3.0279   -2.4104 C   0  0  0  0  0  0  0  0  0 29  0  0
   -1.8559   -4.0465   -2.7536 H   0  0  0  0  0  0  0  0  0 34  0  0
   -2.3509   -1.9994   -3.1804 C   0  0  0  0  0  0  0  0  0 30  0  0
   -2.7932   -2.2194   -4.1437 H   0  0  0  0  0  0  0  0  0 33  0  0
   -2.2882   -0.6869   -2.7431 C   0  0  0  0  0  0  0  0  0 31  0  0
   -2.6943    0.1160   -3.3395 H   0  0  0  0  0  0  0  0  0 32  0  0
   -2.5008    2.3554    0.1458 H   0  0  0  0  0  0  0  0  0 38  0  0
   -1.4138    0.9588    1.3847 C   0  0  0  0  0  0  0  0  0 39  0  0
   -1.5582    0.0030    2.1051 O   0  0  0  0  0  0  0  0  0 40  0  0
   -0.4249    1.8641    1.4967 N   0  0  0  0  0  0  0  0  0 41  0  0
   -0.3441    2.6041    0.7998 H   0  0  0  0  0  0  0  0  0 42  0  0
    0.6992    1.7297    2.3976 C   0  0  2  0  0  0  0  0  0 43  0  0
    0.4444    0.9440    3.0982 H   0  0  0  0  0  0  0  0  0 44  0  0
    0.9872    3.0611    3.0943 C   0  0  0  0  0  0  0  0  0 45  0  0
    1.0937    2.9290    4.1754 H   0  0  0  0  0  0  0  0  0 55  0  0
    0.1676    3.7669    2.9256 H   0  0  0  0  0  0  0  0  0 56  0  0
    2.2816    3.6157    2.4986 C   0  0  0  0  0  0  0  0  0 46  0  0
    2.2406    4.6774    2.2918 H   0  0  0  0  0  0  0  0  0 47  0  0
    3.1295    3.4368    3.1843 H   0  0  0  0  0  0  0  0  0 48  0  0
    2.5310    2.7877    1.2370 C   0  0  0  0  0  0  0  0  0 49  0  0
    3.5824    2.7470    0.9476 H   0  0  0  0  0  0  0  0  0 50  0  0
    1.9683    3.2169    0.3994 H   0  0  0  0  0  0  0  0  0 51  0  0
    1.9799    1.4113    1.6010 C   0  0  0  0  0  0  0  0  0 52  0  0
    2.7019    0.8988    2.2285 H   0  0  0  0  0  0  0  0  0 53  0  0
    1.7470    0.7803    0.7363 H   0  0  0  0  0  0  0  0  0 54  0  0
   -4.0649    0.7903    1.3372 H   0  0  0  0  0  0  0  0  0 57  0  0
   -5.6428    0.5442   -0.5341 H   0  0  0  0  0  0  0  0  0 58  0  0
   -4.3558    0.8138   -1.7070 H   0  0  0  0  0  0  0  0  0 59  0  0
   -4.8554    2.1130   -0.6066 H   0  0  0  0  0  0  0  0  0 60  0  0
  1  2  1  0
  2  3  1  0
  2  4  1  0
  4  5  1  0
  5  6  1  0
  6  7  2  0
  6  8  1  0
  8  9  1  0
  9 10  4  0
 10 11  4  0
 11 12  4  0
 12 13  1  0
 13 14  4  0
 14 15  1  0
 14 16  4  0
 16 17  1  0
 16 18  4  0
 18 19  1  0
 19 20  1  0
 19 21  1  0
 19 22  1  0
 18 23  4  0
 12 24  4  0
  8 25  1  0
  8 26  1  0
  5 27  1  0
 27 28  4  0
 28 29  1  0
 28 30  4  0
 30 31  1  0
 31 32  1  0
 30 33  4  0
 33 34  1  0
 33 35  4  0
 35 36  1  0
 35 37  4  0
 37 38  1  0
  4 39  1  6
  4 40  1  0
 40 41  2  0
 40 42  1  0
 42 43  1  0
 42 44  1  0
 44 45  1  1
 44 46  1  0
 46 47  1  0
 46 48  1  0
 46 49  1  0
 49 50  1  0
 49 51  1  0
 49 52  1  0
 52 53  1  0
 52 54  1  0
 52 55  1  0
 55 56  1  0
 55 57  1  0
  2 58  1  0
  1 59  1  0
  1 60  1  0
  1 61  1  0
 24  9  4  0
 37 27  4  0
 55 44  1  0
 23 13  4  0
M  END
>  <sample_id>  (439)
train::CCC(C(=O)NC1CCCC1)N(C(=O)Cn1nnc(-c2ccc(C)o2)n1)c1cccc(O)c1__gen0000

>  <partition>  (439)
BAT_EXTERNAL_CONFIRM

>  <method>  (439)
BA_seed193

>  <candidate>  (439)
primary

$$$$
train::CCC(C(=O)NC1CCCC1)N(C(=O)Cn1nnc(-c2ccc(C)o2)n1)c1cccc(O)c1__gen0001
     RDKit          3D

 61 64  0  0  0  0  0  0  0  0999 V2000
    3.1739   -2.4073    3.1717 C   0  0  0  0  0  0  0  0  0  0  0  0
    1.9096   -2.6993    2.3835 C   0  0  0  0  0  0  0  0  0  1  0  0
    1.3092   -3.4465    2.8994 H   0  0  0  0  0  0  0  0  0  2  0  0
    1.0442   -1.4325    2.2627 C   0  0  1  0  0  0  0  0  0  3  0  0
    1.6946   -0.3014    1.5396 N   0  0  0  0  0  0  0  0  0  4  0  0
    2.3565   -0.4749    0.3772 C   0  0  0  0  0  0  0  0  0  5  0  0
    2.5061   -1.5594   -0.1575 O   0  0  0  0  0  0  0  0  0  6  0  0
    2.8184    0.8024   -0.3327 C   0  0  0  0  0  0  0  0  0  7  0  0
    1.6874    1.6323   -0.6114 N   0  0  0  0  0  0  0  0  0  8  0  0
    1.5465    2.8549   -0.1591 N   0  0  0  0  0  0  0  0  0  9  0  0
    0.4158    3.2972   -0.5782 N   0  0  0  0  0  0  0  0  0 10  0  0
   -0.0992    2.3065   -1.3454 C   0  0  0  0  0  0  0  0  0 11  0  0
   -1.3334    2.4333   -2.0582 C   0  0  0  0  0  0  0  0  0 13  0  0
   -2.3384    3.3653   -1.9521 C   0  0  0  0  0  0  0  0  0 14  0  0
   -2.3610    4.1840   -1.2599 H   0  0  0  0  0  0  0  0  0 23  0  0
   -3.2962    3.0362   -2.9297 C   0  0  0  0  0  0  0  0  0 15  0  0
   -4.2234    3.5287   -3.1078 H   0  0  0  0  0  0  0  0  0 22  0  0
   -2.8192    1.9317   -3.5744 C   0  0  0  0  0  0  0  0  0 16  0  0
   -3.3866    1.1051   -4.6833 C   0  0  0  0  0  0  0  0  0 18  0  0
   -4.4461    0.9280   -4.5094 H   0  0  0  0  0  0  0  0  0 19  0  0
   -2.8657    0.1557   -4.7435 H   0  0  0  0  0  0  0  0  0 20  0  0
   -3.2785    1.6406   -5.6246 H   0  0  0  0  0  0  0  0  0 21  0  0
   -1.6397    1.5574   -3.0461 O   0  0  0  0  0  0  0  0  0 17  0  0
    0.6866    1.2458   -1.3524 N   0  0  0  0  0  0  0  0  0 12  0  0
    3.5300    1.3971    0.2590 H   0  0  0  0  0  0  0  0  0 24  0  0
    3.2824    0.5026   -1.2735 H   0  0  0  0  0  0  0  0  0 25  0  0
    1.5296    0.9612    2.1569 C   0  0  0  0  0  0  0  0  0 26  0  0
    2.6348    1.6282    2.6612 C   0  0  0  0  0  0  0  0  0 27  0  0
    3.6193    1.2061    2.5649 H   0  0  0  0  0  0  0  0  0 37  0  0
    2.4688    2.8645    3.2703 C   0  0  0  0  0  0  0  0  0 28  0  0
    3.5259    3.5910    3.7466 O   0  0  0  0  0  0  0  0  0 35  0  0
    4.3419    3.0998    3.5868 H   0  0  0  0  0  0  0  0  0 36  0  0
    1.2028    3.4012    3.4158 C   0  0  0  0  0  0  0  0  0 29  0  0
    1.0915    4.3659    3.8897 H   0  0  0  0  0  0  0  0  0 34  0  0
    0.0964    2.7075    2.9609 C   0  0  0  0  0  0  0  0  0 30  0  0
   -0.8891    3.1174    3.0732 H   0  0  0  0  0  0  0  0  0 33  0  0
    0.2537    1.4914    2.3150 C   0  0  0  0  0  0  0  0  0 31  0  0
   -0.6013    0.9500    1.9353 H   0  0  0  0  0  0  0  0  0 32  0  0
    0.8603   -1.0380    3.2581 H   0  0  0  0  0  0  0  0  0 38  0  0
   -0.3320   -1.7504    1.6579 C   0  0  0  0  0  0  0  0  0 39  0  0
   -1.3306   -1.7342    2.3478 O   0  0  0  0  0  0  0  0  0 40  0  0
   -0.3257   -2.0829    0.3608 N   0  0  0  0  0  0  0  0  0 41  0  0
    0.5433   -2.0784   -0.1516 H   0  0  0  0  0  0  0  0  0 42  0  0
   -1.5363   -2.3780   -0.3649 C   0  0  2  0  0  0  0  0  0 43  0  0
   -2.3196   -2.4567    0.4033 H   0  0  0  0  0  0  0  0  0 44  0  0
   -1.4216   -3.6819   -1.1779 C   0  0  0  0  0  0  0  0  0 45  0  0
   -0.3939   -3.8228   -1.4970 H   0  0  0  0  0  0  0  0  0 55  0  0
   -1.7196   -4.5387   -0.5751 H   0  0  0  0  0  0  0  0  0 56  0  0
   -2.3429   -3.4606   -2.3544 C   0  0  0  0  0  0  0  0  0 46  0  0
   -2.1351   -4.1355   -3.1814 H   0  0  0  0  0  0  0  0  0 47  0  0
   -3.3868   -3.5827   -2.0474 H   0  0  0  0  0  0  0  0  0 48  0  0
   -2.0921   -2.0005   -2.7319 C   0  0  0  0  0  0  0  0  0 49  0  0
   -1.1992   -1.9140   -3.3532 H   0  0  0  0  0  0  0  0  0 50  0  0
   -2.9485   -1.5922   -3.2828 H   0  0  0  0  0  0  0  0  0 51  0  0
   -1.8735   -1.2778   -1.3917 C   0  0  0  0  0  0  0  0  0 52  0  0
   -2.7664   -0.7319   -1.1126 H   0  0  0  0  0  0  0  0  0 53  0  0
   -1.0509   -0.5716   -1.4812 H   0  0  0  0  0  0  0  0  0 54  0  0
    2.1531   -3.0934    1.3916 H   0  0  0  0  0  0  0  0  0 57  0  0
    3.8199   -1.7151    2.6383 H   0  0  0  0  0  0  0  0  0 58  0  0
    2.9304   -1.9917    4.1477 H   0  0  0  0  0  0  0  0  0 59  0  0
    3.7200   -3.3385    3.3271 H   0  0  0  0  0  0  0  0  0 60  0  0
  1  2  1  0
  2  3  1  0
  2  4  1  0
  4  5  1  0
  5  6  1  0
  6  7  2  0
  6  8  1  0
  8  9  1  0
  9 10  4  0
 10 11  4  0
 11 12  4  0
 12 13  1  0
 13 14  4  0
 14 15  1  0
 14 16  4  0
 16 17  1  0
 16 18  4  0
 18 19  1  0
 19 20  1  0
 19 21  1  0
 19 22  1  0
 18 23  4  0
 12 24  4  0
  8 25  1  0
  8 26  1  0
  5 27  1  0
 27 28  4  0
 28 29  1  0
 28 30  4  0
 30 31  1  0
 31 32  1  0
 30 33  4  0
 33 34  1  0
 33 35  4  0
 35 36  1  0
 35 37  4  0
 37 38  1  0
  4 39  1  6
  4 40  1  0
 40 41  2  0
 40 42  1  0
 42 43  1  0
 42 44  1  0
 44 45  1  1
 44 46  1  0
 46 47  1  0
 46 48  1  0
 46 49  1  0
 49 50  1  0
 49 51  1  0
 49 52  1  0
 52 53  1  0
 52 54  1  0
 52 55  1  0
 55 56  1  0
 55 57  1  0
  2 58  1  0
  1 59  1  0
  1 60  1  0
  1 61  1  0
 24  9  4  0
 37 27  4  0
 55 44  1  0
 23 13  4  0
M  END
>  <sample_id>  (440)
train::CCC(C(=O)NC1CCCC1)N(C(=O)Cn1nnc(-c2ccc(C)o2)n1)c1cccc(O)c1__gen0001

>  <partition>  (440)
BAT_EXTERNAL_CONFIRM

>  <method>  (440)
BA_seed193

>  <candidate>  (440)
primary

$$$$
train::CCC(C(=O)NC1CCCC1)N(C(=O)Cn1nnc(-c2ccc(C)o2)n1)c1cccc(O)c1__gen0002
     RDKit          3D

 61 64  0  0  0  0  0  0  0  0999 V2000
    1.5632   -3.1239    3.5230 C   0  0  0  0  0  0  0  0  0  0  0  0
    0.5107   -3.1390    2.4398 C   0  0  0  0  0  0  0  0  0  1  0  0
   -0.3480   -2.5372    2.7266 H   0  0  0  0  0  0  0  0  0  2  0  0
    1.0666   -2.6184    1.1011 C   0  0  2  0  0  0  0  0  0  3  0  0
    1.4116   -1.1882    1.1584 N   0  0  0  0  0  0  0  0  0  4  0  0
    2.5465   -0.8101    0.5245 C   0  0  0  0  0  0  0  0  0  5  0  0
    3.3265   -1.5855    0.0097 O   0  0  0  0  0  0  0  0  0  6  0  0
    2.8303    0.6956    0.4429 C   0  0  0  0  0  0  0  0  0  7  0  0
    1.6711    1.4260   -0.0138 N   0  0  0  0  0  0  0  0  0  8  0  0
    0.9755    1.0769   -1.0676 N   0  0  0  0  0  0  0  0  0  9  0  0
   -0.0248    1.8656   -1.1444 N   0  0  0  0  0  0  0  0  0 10  0  0
    0.0756    2.7080   -0.0906 C   0  0  0  0  0  0  0  0  0 11  0  0
   -0.8781    3.7261    0.2389 C   0  0  0  0  0  0  0  0  0 13  0  0
   -0.8847    4.6254    1.2730 C   0  0  0  0  0  0  0  0  0 14  0  0
   -0.1288    4.7329    2.0202 H   0  0  0  0  0  0  0  0  0 23  0  0
   -2.0656    5.3656    1.1354 C   0  0  0  0  0  0  0  0  0 15  0  0
   -2.4214    6.1401    1.7752 H   0  0  0  0  0  0  0  0  0 22  0  0
   -2.7263    4.8651    0.0405 C   0  0  0  0  0  0  0  0  0 16  0  0
   -4.0140    5.2008   -0.5961 C   0  0  0  0  0  0  0  0  0 18  0  0
   -4.7107    4.3840   -0.5167 H   0  0  0  0  0  0  0  0  0 19  0  0
   -4.4172    6.0999   -0.1440 H   0  0  0  0  0  0  0  0  0 20  0  0
   -3.8685    5.3969   -1.6692 H   0  0  0  0  0  0  0  0  0 21  0  0
   -1.9949    3.8712   -0.5173 O   0  0  0  0  0  0  0  0  0 17  0  0
    1.1586    2.4379    0.6458 N   0  0  0  0  0  0  0  0  0 12  0  0
    3.6364    0.8267   -0.2861 H   0  0  0  0  0  0  0  0  0 24  0  0
    3.1318    1.1230    1.3965 H   0  0  0  0  0  0  0  0  0 25  0  0
    0.5059   -0.3050    1.7591 C   0  0  0  0  0  0  0  0  0 26  0  0
   -0.7473   -0.1177    1.1952 C   0  0  0  0  0  0  0  0  0 27  0  0
   -1.0113   -0.6436    0.2911 H   0  0  0  0  0  0  0  0  0 37  0  0
   -1.6485    0.7774    1.7688 C   0  0  0  0  0  0  0  0  0 28  0  0
   -2.8647    1.0005    1.2349 O   0  0  0  0  0  0  0  0  0 35  0  0
   -2.9118    0.6391    0.3407 H   0  0  0  0  0  0  0  0  0 36  0  0
   -1.2966    1.4678    2.9302 C   0  0  0  0  0  0  0  0  0 29  0  0
   -1.9984    2.1595    3.3719 H   0  0  0  0  0  0  0  0  0 34  0  0
   -0.0469    1.2694    3.4910 C   0  0  0  0  0  0  0  0  0 30  0  0
    0.2169    1.7872    4.3971 H   0  0  0  0  0  0  0  0  0 33  0  0
    0.8527    0.3851    2.9158 C   0  0  0  0  0  0  0  0  0 31  0  0
    1.8211    0.2294    3.3669 H   0  0  0  0  0  0  0  0  0 32  0  0
    2.0000   -3.1457    0.8816 H   0  0  0  0  0  0  0  0  0 38  0  0
    0.0572   -2.7879   -0.0553 C   0  0  0  0  0  0  0  0  0 39  0  0
   -1.1338   -2.9833    0.1296 O   0  0  0  0  0  0  0  0  0 40  0  0
    0.6367   -2.6601   -1.2430 N   0  0  0  0  0  0  0  0  0 41  0  0
    1.6351   -2.4862   -1.3002 H   0  0  0  0  0  0  0  0  0 42  0  0
   -0.1082   -2.5703   -2.4790 C   0  0  2  0  0  0  0  0  0 43  0  0
   -1.1511   -2.7089   -2.1959 H   0  0  0  0  0  0  0  0  0 44  0  0
    0.3445   -3.6140   -3.5145 C   0  0  0  0  0  0  0  0  0 45  0  0
    0.9853   -4.3738   -3.0528 H   0  0  0  0  0  0  0  0  0 55  0  0
   -0.5216   -4.1285   -3.9301 H   0  0  0  0  0  0  0  0  0 56  0  0
    1.0813   -2.8370   -4.6118 C   0  0  0  0  0  0  0  0  0 46  0  0
    2.1202   -2.6667   -4.3386 H   0  0  0  0  0  0  0  0  0 47  0  0
    1.0371   -3.3569   -5.5714 H   0  0  0  0  0  0  0  0  0 48  0  0
    0.3340   -1.5087   -4.6417 C   0  0  0  0  0  0  0  0  0 49  0  0
   -0.6288   -1.6347   -5.1461 H   0  0  0  0  0  0  0  0  0 50  0  0
    0.8884   -0.7346   -5.1609 H   0  0  0  0  0  0  0  0  0 51  0  0
    0.1211   -1.2004   -3.1698 C   0  0  0  0  0  0  0  0  0 52  0  0
    1.0317   -0.7479   -2.7660 H   0  0  0  0  0  0  0  0  0 53  0  0
   -0.6916   -0.5216   -2.9788 H   0  0  0  0  0  0  0  0  0 54  0  0
    0.1584   -4.1530    2.2725 H   0  0  0  0  0  0  0  0  0 57  0  0
    1.9000   -2.1131    3.7399 H   0  0  0  0  0  0  0  0  0 58  0  0
    2.4353   -3.7166    3.2284 H   0  0  0  0  0  0  0  0  0 59  0  0
    1.1762   -3.5645    4.4356 H   0  0  0  0  0  0  0  0  0 60  0  0
  1  2  1  0
  2  3  1  0
  2  4  1  0
  4  5  1  0
  5  6  1  0
  6  7  2  0
  6  8  1  0
  8  9  1  0
  9 10  4  0
 10 11  4  0
 11 12  4  0
 12 13  1  0
 13 14  4  0
 14 15  1  0
 14 16  4  0
 16 17  1  0
 16 18  4  0
 18 19  1  0
 19 20  1  0
 19 21  1  0
 19 22  1  0
 18 23  4  0
 12 24  4  0
  8 25  1  0
  8 26  1  0
  5 27  1  0
 27 28  4  0
 28 29  1  0
 28 30  4  0
 30 31  1  0
 31 32  1  0
 30 33  4  0
 33 34  1  0
 33 35  4  0
 35 36  1  0
 35 37  4  0
 37 38  1  0
  4 39  1  6
  4 40  1  0
 40 41  2  0
 40 42  1  0
 42 43  1  0
 42 44  1  0
 44 45  1  1
 44 46  1  0
 46 47  1  0
 46 48  1  0
 46 49  1  0
 49 50  1  0
 49 51  1  0
 49 52  1  0
 52 53  1  0
 52 54  1  0
 52 55  1  0
 55 56  1  0
 55 57  1  0
  2 58  1  0
  1 59  1  0
  1 60  1  0
  1 61  1  0
 24  9  4  0
 37 27  4  0
 55 44  1  0
 23 13  4  0
M  END
>  <sample_id>  (441)
train::CCC(C(=O)NC1CCCC1)N(C(=O)Cn1nnc(-c2ccc(C)o2)n1)c1cccc(O)c1__gen0002

>  <partition>  (441)
BAT_EXTERNAL_CONFIRM

>  <method>  (441)
BA_seed193

>  <candidate>  (441)
primary

$$$$
train::COc1cc(_C=N_NC(=O)C(Cc2c[nH]c3ccccc23)NC(=O)OCC(C)C)cc([N+](=O)[O-])c1O__gen0000
     RDKit          3D

 63 65  0  0  0  0  0  0  0  0999 V2000
    3.8096   -1.7074    1.8030 C   0  0  0  0  0  0  0  0  0  0  0  0
    3.5253   -1.2657    2.7722 H   0  0  0  0  0  0  0  0  0  1  0  0
    2.8730   -2.7125    1.4279 O   0  0  0  0  0  0  0  0  0  2  0  0
    1.5584   -2.3772    1.3050 C   0  0  0  0  0  0  0  0  0  3  0  0
    1.0381   -1.1077    1.4552 C   0  0  0  0  0  0  0  0  0  4  0  0
    1.6792   -0.2411    1.6349 H   0  0  0  0  0  0  0  0  0 60  0  0
   -0.3256   -0.8741    1.3720 C   0  0  0  0  0  0  0  0  0  5  0  0
   -0.8943    0.4650    1.4998 C   0  0  0  0  0  0  0  0  0 15  0  0
   -0.5416    1.3958    0.7087 N   0  0  0  0  0  0  0  0  0 16  0  0
   -1.0475    2.6079    0.8147 N   0  0  0  0  0  0  0  0  0 17  0  0
   -0.9901    3.5725   -0.1475 C   0  0  0  0  0  0  0  0  0 18  0  0
   -1.4174    4.6775    0.0581 O   0  0  0  0  0  0  0  0  0 19  0  0
   -0.3852    3.2053   -1.5002 C   0  0  2  0  0  0  0  0  0 20  0  0
   -0.6605    1.8435   -1.8973 N   0  0  0  0  0  0  0  0  0 21  0  0
   -1.9327    1.3654   -1.8474 C   0  0  0  0  0  0  0  0  0 22  0  0
   -2.8953    1.9980   -1.5029 O   0  0  0  0  0  0  0  0  0 23  0  0
   -1.9811    0.0544   -2.2918 O   0  0  0  0  0  0  0  0  0 24  0  0
   -3.2620   -0.4899   -2.4315 C   0  0  0  0  0  0  0  0  0 25  0  0
   -3.2897   -1.9347   -1.8689 C   0  0  2  0  0  0  0  0  0 26  0  0
   -2.4099   -2.8558   -2.7192 C   0  0  0  0  0  0  0  0  0 27  0  0
   -2.3721   -3.8408   -2.2596 H   0  0  0  0  0  0  0  0  0 28  0  0
   -1.4105   -2.4662   -2.7963 H   0  0  0  0  0  0  0  0  0 29  0  0
   -2.8051   -2.9553   -3.7229 H   0  0  0  0  0  0  0  0  0 30  0  0
   -4.7012   -2.4740   -1.8237 C   0  0  0  0  0  0  0  0  0 31  0  0
   -5.3346   -1.8560   -1.1948 H   0  0  0  0  0  0  0  0  0 32  0  0
   -5.1395   -2.4941   -2.8118 H   0  0  0  0  0  0  0  0  0 33  0  0
   -4.7047   -3.4789   -1.3987 H   0  0  0  0  0  0  0  0  0 34  0  0
   -2.8798   -1.8811   -0.8696 H   0  0  0  0  0  0  0  0  0 35  0  0
   -3.9883    0.1251   -1.8991 H   0  0  0  0  0  0  0  0  0 36  0  0
   -3.5173   -0.5087   -3.4952 H   0  0  0  0  0  0  0  0  0 37  0  0
    0.0853    1.1656   -1.9618 H   0  0  0  0  0  0  0  0  0 38  0  0
   -0.9249    3.8594   -2.2029 H   0  0  0  0  0  0  0  0  0 39  0  0
    1.0987    3.5143   -1.5850 C   0  0  0  0  0  0  0  0  0 40  0  0
    1.9462    2.5714   -0.7708 C   0  0  0  0  0  0  0  0  0 41  0  0
    2.5348    1.4267   -1.2115 C   0  0  0  0  0  0  0  0  0 42  0  0
    2.5190    1.0043   -2.1901 H   0  0  0  0  0  0  0  0  0 55  0  0
    3.2398    0.8735   -0.2074 N   0  0  0  0  0  0  0  0  0 43  0  0
    3.7212   -0.0101   -0.2579 H   0  0  0  0  0  0  0  0  0 54  0  0
    3.1198    1.6561    0.9308 C   0  0  0  0  0  0  0  0  0 44  0  0
    3.6404    1.5205    2.2230 C   0  0  0  0  0  0  0  0  0 45  0  0
    4.3369    0.7428    2.4508 H   0  0  0  0  0  0  0  0  0 53  0  0
    3.2397    2.4248    3.1736 C   0  0  0  0  0  0  0  0  0 46  0  0
    3.6144    2.3031    4.1762 H   0  0  0  0  0  0  0  0  0 52  0  0
    2.3575    3.4430    2.8835 C   0  0  0  0  0  0  0  0  0 47  0  0
    2.0554    4.1073    3.6509 H   0  0  0  0  0  0  0  0  0 51  0  0
    1.8583    3.6032    1.6158 C   0  0  0  0  0  0  0  0  0 48  0  0
    1.1744    4.4107    1.3956 H   0  0  0  0  0  0  0  0  0 50  0  0
    2.2451    2.7094    0.6229 C   0  0  0  0  0  0  0  0  0 49  0  0
    1.4095    3.4286   -2.6297 H   0  0  0  0  0  0  0  0  0 56  0  0
    1.2869    4.5168   -1.2207 H   0  0  0  0  0  0  0  0  0 57  0  0
   -1.6646    2.8358    1.6003 H   0  0  0  0  0  0  0  0  0 58  0  0
   -1.6782    0.6080    2.2541 H   0  0  0  0  0  0  0  0  0 59  0  0
   -1.1889   -1.9410    1.1531 C   0  0  0  0  0  0  0  0  0  6  0  0
   -2.2634   -1.8088    1.1073 H   0  0  0  0  0  0  0  0  0 14  0  0
   -0.6708   -3.2187    0.9829 C   0  0  0  0  0  0  0  0  0  7  0  0
   -1.5743   -4.2839    0.6835 N   0  0  0  0  0  0  0  0  0 11  0  0
   -2.7554   -3.9828    0.5271 O   0  0  0  0  0  0  0  0  0 12  0  0
   -1.1563   -5.4240    0.6131 O   0  0  0  0  0  0  0  0  0 13  0  0
    0.7219   -3.4571    1.0395 C   0  0  0  0  0  0  0  0  0  8  0  0
    1.2268   -4.6621    0.8571 O   0  0  0  0  0  0  0  0  0  9  0  0
    2.2019   -4.6162    0.9557 H   0  0  0  0  0  0  0  0  0 10  0  0
    3.8881   -0.9016    1.0714 H   0  0  0  0  0  0  0  0  0 61  0  0
    4.7574   -2.2082    1.8965 H   0  0  0  0  0  0  0  0  0 62  0  0
  1  2  1  0
  1  3  1  0
  3  4  1  0
  4  5  4  0
  5  6  1  0
  5  7  4  0
  7  8  1  0
  8  9  2  0
  9 10  1  0
 10 11  1  0
 11 12  2  0
 11 13  1  0
 13 14  1  0
 14 15  1  0
 15 16  2  0
 15 17  1  0
 17 18  1  0
 18 19  1  0
 19 20  1  0
 20 21  1  0
 20 22  1  0
 20 23  1  0
 19 24  1  0
 24 25  1  0
 24 26  1  0
 24 27  1  0
 19 28  1  6
 18 29  1  0
 18 30  1  0
 14 31  1  0
 13 32  1  6
 13 33  1  0
 33 34  1  0
 34 35  4  0
 35 36  1  0
 35 37  4  0
 37 38  1  0
 37 39  4  0
 39 40  4  0
 40 41  1  0
 40 42  4  0
 42 43  1  0
 42 44  4  0
 44 45  1  0
 44 46  4  0
 46 47  1  0
 46 48  4  0
 33 49  1  0
 33 50  1  0
 10 51  1  0
  8 52  1  0
  7 53  4  0
 53 54  1  0
 53 55  4  0
 55 56  1  0
 56 57  2  0
 56 58  1  0
 55 59  4  0
 59 60  1  0
 60 61  1  0
  1 62  1  0
  1 63  1  0
 59  4  4  0
 48 34  4  0
 48 39  4  0
M  CHG  2  56   1  58  -1
M  END
>  <sample_id>  (442)
train::COc1cc(_C=N_NC(=O)C(Cc2c[nH]c3ccccc23)NC(=O)OCC(C)C)cc([N+](=O)[O-])c1O__gen0000

>  <partition>  (442)
BAT_EXTERNAL_CONFIRM

>  <method>  (442)
BA_seed193

>  <candidate>  (442)
primary

$$$$
train::COc1cc(_C=N_NC(=O)C(Cc2c[nH]c3ccccc23)NC(=O)OCC(C)C)cc([N+](=O)[O-])c1O__gen0001
     RDKit          3D

 63 65  0  0  0  0  0  0  0  0999 V2000
    0.2519   -2.4143   -0.8542 C   0  0  0  0  0  0  0  0  0  0  0  0
   -0.4565   -1.8317   -0.2420 H   0  0  0  0  0  0  0  0  0  1  0  0
    0.8916   -3.4002   -0.1017 O   0  0  0  0  0  0  0  0  0  2  0  0
    1.6506   -3.0334    0.9548 C   0  0  0  0  0  0  0  0  0  3  0  0
    1.8693   -1.7215    1.3504 C   0  0  0  0  0  0  0  0  0  4  0  0
    1.4376   -0.9049    0.8103 H   0  0  0  0  0  0  0  0  0 60  0  0
    2.6856   -1.4084    2.4386 C   0  0  0  0  0  0  0  0  0  5  0  0
    2.8514   -0.0413    2.8472 C   0  0  0  0  0  0  0  0  0 15  0  0
    2.1953    0.8789    2.2498 N   0  0  0  0  0  0  0  0  0 16  0  0
    2.3374    2.1450    2.6114 N   0  0  0  0  0  0  0  0  0 17  0  0
    1.6658    3.2062    2.0770 C   0  0  0  0  0  0  0  0  0 18  0  0
    1.8761    4.3160    2.4914 O   0  0  0  0  0  0  0  0  0 19  0  0
    0.7707    2.9465    0.8772 C   0  0  2  0  0  0  0  0  0 20  0  0
   -0.0761    1.7693    0.9916 N   0  0  0  0  0  0  0  0  0 21  0  0
   -1.1792    1.5989    0.2115 C   0  0  0  0  0  0  0  0  0 22  0  0
   -1.4719    2.2892   -0.7399 O   0  0  0  0  0  0  0  0  0 23  0  0
   -1.9014    0.5443    0.6595 O   0  0  0  0  0  0  0  0  0 24  0  0
   -3.1669    0.3344    0.0300 C   0  0  0  0  0  0  0  0  0 25  0  0
   -3.3432   -1.1289   -0.3778 C   0  0  1  0  0  0  0  0  0 26  0  0
   -3.3350   -2.0355    0.8695 C   0  0  0  0  0  0  0  0  0 27  0  0
   -2.4101   -1.9183    1.4281 H   0  0  0  0  0  0  0  0  0 28  0  0
   -3.4098   -3.0734    0.5721 H   0  0  0  0  0  0  0  0  0 29  0  0
   -4.1782   -1.7900    1.5073 H   0  0  0  0  0  0  0  0  0 30  0  0
   -4.6448   -1.3145   -1.1527 C   0  0  0  0  0  0  0  0  0 31  0  0
   -4.6719   -0.6660   -2.0250 H   0  0  0  0  0  0  0  0  0 32  0  0
   -4.7534   -2.3456   -1.4719 H   0  0  0  0  0  0  0  0  0 33  0  0
   -5.4920   -1.0597   -0.5216 H   0  0  0  0  0  0  0  0  0 34  0  0
   -2.5054   -1.4140   -1.0389 H   0  0  0  0  0  0  0  0  0 35  0  0
   -3.2149    0.9738   -0.8670 H   0  0  0  0  0  0  0  0  0 36  0  0
   -3.9447    0.6382    0.7333 H   0  0  0  0  0  0  0  0  0 37  0  0
    0.0218    1.1610    1.7848 H   0  0  0  0  0  0  0  0  0 38  0  0
    0.1267    3.8284    0.8023 H   0  0  0  0  0  0  0  0  0 39  0  0
    1.6435    2.8177   -0.4230 C   0  0  0  0  0  0  0  0  0 40  0  0
    0.8387    3.2312   -1.5893 C   0  0  0  0  0  0  0  0  0 41  0  0
    0.4781    4.5139   -1.9210 C   0  0  0  0  0  0  0  0  0 42  0  0
    0.7995    5.4457   -1.4945 H   0  0  0  0  0  0  0  0  0 55  0  0
   -0.4040    4.4977   -2.9771 N   0  0  0  0  0  0  0  0  0 43  0  0
   -0.8422    5.3036   -3.3706 H   0  0  0  0  0  0  0  0  0 54  0  0
   -0.6618    3.1965   -3.3067 C   0  0  0  0  0  0  0  0  0 44  0  0
   -1.5340    2.6887   -4.2531 C   0  0  0  0  0  0  0  0  0 45  0  0
   -2.1450    3.3333   -4.8651 H   0  0  0  0  0  0  0  0  0 53  0  0
   -1.5769    1.3123   -4.4031 C   0  0  0  0  0  0  0  0  0 46  0  0
   -2.2664    0.8702   -5.1089 H   0  0  0  0  0  0  0  0  0 52  0  0
   -0.7790    0.4693   -3.6234 C   0  0  0  0  0  0  0  0  0 47  0  0
   -0.8216   -0.5933   -3.7818 H   0  0  0  0  0  0  0  0  0 51  0  0
    0.0919    0.9801   -2.6770 C   0  0  0  0  0  0  0  0  0 48  0  0
    0.7460    0.3280   -2.1284 H   0  0  0  0  0  0  0  0  0 50  0  0
    0.1190    2.3637   -2.4694 C   0  0  0  0  0  0  0  0  0 49  0  0
    2.0148    1.8021   -0.5457 H   0  0  0  0  0  0  0  0  0 56  0  0
    2.4884    3.5003   -0.2907 H   0  0  0  0  0  0  0  0  0 57  0  0
    2.9920    2.3916    3.3667 H   0  0  0  0  0  0  0  0  0 58  0  0
    3.5637    0.1808    3.6640 H   0  0  0  0  0  0  0  0  0 59  0  0
    3.2455   -2.4545    3.1726 C   0  0  0  0  0  0  0  0  0  6  0  0
    3.8850   -2.2494    4.0234 H   0  0  0  0  0  0  0  0  0 14  0  0
    3.0331   -3.7705    2.7953 C   0  0  0  0  0  0  0  0  0  7  0  0
    3.6452   -4.7965    3.5738 N   0  0  0  0  0  0  0  0  0 11  0  0
    4.4131   -4.4543    4.4603 O   0  0  0  0  0  0  0  0  0 12  0  0
    3.3761   -5.9679    3.3167 O   0  0  0  0  0  0  0  0  0 13  0  0
    2.2231   -4.1009    1.6828 C   0  0  0  0  0  0  0  0  0  8  0  0
    1.9615   -5.3412    1.2874 O   0  0  0  0  0  0  0  0  0  9  0  0
    2.3424   -5.9811    1.9150 H   0  0  0  0  0  0  0  0  0 10  0  0
   -0.3009   -2.9256   -1.6375 H   0  0  0  0  0  0  0  0  0 61  0  0
    0.9549   -1.7197   -1.2971 H   0  0  0  0  0  0  0  0  0 62  0  0
  1  2  1  0
  1  3  1  0
  3  4  1  0
  4  5  4  0
  5  6  1  0
  5  7  4  0
  7  8  1  0
  8  9  2  0
  9 10  1  0
 10 11  1  0
 11 12  2  0
 11 13  1  0
 13 14  1  0
 14 15  1  0
 15 16  2  0
 15 17  1  0
 17 18  1  0
 18 19  1  0
 19 20  1  0
 20 21  1  0
 20 22  1  0
 20 23  1  0
 19 24  1  0
 24 25  1  0
 24 26  1  0
 24 27  1  0
 19 28  1  6
 18 29  1  0
 18 30  1  0
 14 31  1  0
 13 32  1  6
 13 33  1  0
 33 34  1  0
 34 35  4  0
 35 36  1  0
 35 37  4  0
 37 38  1  0
 37 39  4  0
 39 40  4  0
 40 41  1  0
 40 42  4  0
 42 43  1  0
 42 44  4  0
 44 45  1  0
 44 46  4  0
 46 47  1  0
 46 48  4  0
 33 49  1  0
 33 50  1  0
 10 51  1  0
  8 52  1  0
  7 53  4  0
 53 54  1  0
 53 55  4  0
 55 56  1  0
 56 57  2  0
 56 58  1  0
 55 59  4  0
 59 60  1  0
 60 61  1  0
  1 62  1  0
  1 63  1  0
 59  4  4  0
 48 34  4  0
 48 39  4  0
M  CHG  2  56   1  58  -1
M  END
>  <sample_id>  (443)
train::COc1cc(_C=N_NC(=O)C(Cc2c[nH]c3ccccc23)NC(=O)OCC(C)C)cc([N+](=O)[O-])c1O__gen0001

>  <partition>  (443)
BAT_EXTERNAL_CONFIRM

>  <method>  (443)
BA_seed193

>  <candidate>  (443)
primary

$$$$
train::COc1cc(_C=N_NC(=O)C(Cc2c[nH]c3ccccc23)NC(=O)OCC(C)C)cc([N+](=O)[O-])c1O__gen0002
     RDKit          3D

 63 65  0  0  0  0  0  0  0  0999 V2000
   -3.2263   -3.9728   -2.5791 C   0  0  0  0  0  0  0  0  0  0  0  0
   -2.9892   -4.4152   -1.6167 H   0  0  0  0  0  0  0  0  0  1  0  0
   -3.6287   -2.6301   -2.4119 O   0  0  0  0  0  0  0  0  0  2  0  0
   -2.7824   -1.7482   -1.8509 C   0  0  0  0  0  0  0  0  0  3  0  0
   -1.4798   -2.0317   -1.4681 C   0  0  0  0  0  0  0  0  0  4  0  0
   -1.0776   -3.0290   -1.6113 H   0  0  0  0  0  0  0  0  0 60  0  0
   -0.6389   -1.0485   -0.9147 C   0  0  0  0  0  0  0  0  0  5  0  0
    0.7055   -1.3960   -0.5299 C   0  0  0  0  0  0  0  0  0 15  0  0
    1.4641   -0.5941    0.1003 N   0  0  0  0  0  0  0  0  0 16  0  0
    2.7033   -0.9790    0.3883 N   0  0  0  0  0  0  0  0  0 17  0  0
    3.6117   -0.2907    1.1445 C   0  0  0  0  0  0  0  0  0 18  0  0
    4.7016   -0.7716    1.3287 O   0  0  0  0  0  0  0  0  0 19  0  0
    3.2375    1.0689    1.7015 C   0  0  2  0  0  0  0  0  0 20  0  0
    1.8717    1.1646    2.1511 N   0  0  0  0  0  0  0  0  0 21  0  0
    1.3103    0.2430    2.9706 C   0  0  0  0  0  0  0  0  0 22  0  0
    1.9096   -0.7031    3.4211 O   0  0  0  0  0  0  0  0  0 23  0  0
    0.0261    0.5424    3.2156 O   0  0  0  0  0  0  0  0  0 24  0  0
   -0.6566   -0.2809    4.1850 C   0  0  0  0  0  0  0  0  0 25  0  0
   -2.0047   -0.7017    3.6674 C   0  0  2  0  0  0  0  0  0 26  0  0
   -1.8548   -1.5970    2.4413 C   0  0  0  0  0  0  0  0  0 27  0  0
   -2.8120   -1.8856    2.0308 H   0  0  0  0  0  0  0  0  0 28  0  0
   -1.2649   -2.4771    2.6647 H   0  0  0  0  0  0  0  0  0 29  0  0
   -1.3181   -1.0457    1.6708 H   0  0  0  0  0  0  0  0  0 30  0  0
   -2.8991    0.4752    3.3429 C   0  0  0  0  0  0  0  0  0 31  0  0
   -2.5598    0.9863    2.4302 H   0  0  0  0  0  0  0  0  0 32  0  0
   -2.9129    1.2064    4.1575 H   0  0  0  0  0  0  0  0  0 33  0  0
   -3.9228    0.1638    3.1813 H   0  0  0  0  0  0  0  0  0 34  0  0
   -2.4737   -1.2606    4.4637 H   0  0  0  0  0  0  0  0  0 35  0  0
   -0.0358   -1.1457    4.3927 H   0  0  0  0  0  0  0  0  0 36  0  0
   -0.7450    0.3163    5.0942 H   0  0  0  0  0  0  0  0  0 37  0  0
    1.2613    1.8383    1.7040 H   0  0  0  0  0  0  0  0  0 38  0  0
    3.8907    1.1935    2.5782 H   0  0  0  0  0  0  0  0  0 39  0  0
    3.5119    2.2208    0.7080 C   0  0  0  0  0  0  0  0  0 40  0  0
    2.5605    2.2674   -0.4306 C   0  0  0  0  0  0  0  0  0 41  0  0
    1.3595    2.9274   -0.4880 C   0  0  0  0  0  0  0  0  0 42  0  0
    0.9132    3.5667    0.2534 H   0  0  0  0  0  0  0  0  0 55  0  0
    0.7454    2.6829   -1.6755 N   0  0  0  0  0  0  0  0  0 43  0  0
   -0.1357    3.0811   -1.9401 H   0  0  0  0  0  0  0  0  0 54  0  0
    1.5206    1.8435   -2.4115 C   0  0  0  0  0  0  0  0  0 44  0  0
    1.3105    1.2699   -3.6593 C   0  0  0  0  0  0  0  0  0 45  0  0
    0.4106    1.4901   -4.2375 H   0  0  0  0  0  0  0  0  0 53  0  0
    2.2808    0.4201   -4.1450 C   0  0  0  0  0  0  0  0  0 46  0  0
    2.1306   -0.0523   -5.1099 H   0  0  0  0  0  0  0  0  0 52  0  0
    3.4127    0.1067   -3.4056 C   0  0  0  0  0  0  0  0  0 47  0  0
    4.1515   -0.5487   -3.8366 H   0  0  0  0  0  0  0  0  0 51  0  0
    3.6396    0.6761   -2.1706 C   0  0  0  0  0  0  0  0  0 48  0  0
    4.5243    0.4347   -1.6062 H   0  0  0  0  0  0  0  0  0 50  0  0
    2.6664    1.5394   -1.6602 C   0  0  0  0  0  0  0  0  0 49  0  0
    3.4634    3.1508    1.2569 H   0  0  0  0  0  0  0  0  0 56  0  0
    4.5199    2.0892    0.3301 H   0  0  0  0  0  0  0  0  0 57  0  0
    3.0412   -1.8779    0.0337 H   0  0  0  0  0  0  0  0  0 58  0  0
    1.0493   -2.4062   -0.8112 H   0  0  0  0  0  0  0  0  0 59  0  0
   -1.1466    0.2353   -0.7186 C   0  0  0  0  0  0  0  0  0  6  0  0
   -0.5529    1.0038   -0.2928 H   0  0  0  0  0  0  0  0  0 14  0  0
   -2.4685    0.5335   -1.0943 C   0  0  0  0  0  0  0  0  0  7  0  0
   -2.9346    1.8600   -0.8574 N   0  0  0  0  0  0  0  0  0 11  0  0
   -4.0144    2.1626   -1.3354 O   0  0  0  0  0  0  0  0  0 12  0  0
   -2.2568    2.6136   -0.2059 O   0  0  0  0  0  0  0  0  0 13  0  0
   -3.3039   -0.4368   -1.6789 C   0  0  0  0  0  0  0  0  0  8  0  0
   -4.5610   -0.2249   -2.0628 O   0  0  0  0  0  0  0  0  0  9  0  0
   -4.7819    0.7146   -1.9318 H   0  0  0  0  0  0  0  0  0 10  0  0
   -4.0890   -4.4891   -3.0132 H   0  0  0  0  0  0  0  0  0 61  0  0
   -2.3765   -4.0486   -3.2470 H   0  0  0  0  0  0  0  0  0 62  0  0
  1  2  1  0
  1  3  1  0
  3  4  1  0
  4  5  4  0
  5  6  1  0
  5  7  4  0
  7  8  1  0
  8  9  2  0
  9 10  1  0
 10 11  1  0
 11 12  2  0
 11 13  1  0
 13 14  1  0
 14 15  1  0
 15 16  2  0
 15 17  1  0
 17 18  1  0
 18 19  1  0
 19 20  1  0
 20 21  1  0
 20 22  1  0
 20 23  1  0
 19 24  1  0
 24 25  1  0
 24 26  1  0
 24 27  1  0
 19 28  1  6
 18 29  1  0
 18 30  1  0
 14 31  1  0
 13 32  1  1
 13 33  1  0
 33 34  1  0
 34 35  4  0
 35 36  1  0
 35 37  4  0
 37 38  1  0
 37 39  4  0
 39 40  4  0
 40 41  1  0
 40 42  4  0
 42 43  1  0
 42 44  4  0
 44 45  1  0
 44 46  4  0
 46 47  1  0
 46 48  4  0
 33 49  1  0
 33 50  1  0
 10 51  1  0
  8 52  1  0
  7 53  4  0
 53 54  1  0
 53 55  4  0
 55 56  1  0
 56 57  2  0
 56 58  1  0
 55 59  4  0
 59 60  1  0
 60 61  1  0
  1 62  1  0
  1 63  1  0
 59  4  4  0
 48 34  4  0
 48 39  4  0
M  CHG  2  56   1  58  -1
M  END
>  <sample_id>  (444)
train::COc1cc(_C=N_NC(=O)C(Cc2c[nH]c3ccccc23)NC(=O)OCC(C)C)cc([N+](=O)[O-])c1O__gen0002

>  <partition>  (444)
BAT_EXTERNAL_CONFIRM

>  <method>  (444)
BA_seed193

>  <candidate>  (444)
primary

$$$$
train::COC(=O)c1c(NC(=O)CC2SC(N)=NC2=O)sc2c1CCCC2__gen0000
     RDKit          3D

 41 43  0  0  0  0  0  0  0  0999 V2000
   -4.0024    1.2552    0.9569 C   0  0  0  0  0  0  0  0  0  0  0  0
   -4.1635    0.1793    0.8689 H   0  0  0  0  0  0  0  0  0  1  0  0
   -4.4538    1.6308    1.8763 H   0  0  0  0  0  0  0  0  0  2  0  0
   -4.4438    1.7751    0.0976 H   0  0  0  0  0  0  0  0  0  3  0  0
   -2.6176    1.5546    0.9893 O   0  0  0  0  0  0  0  0  0  4  0  0
   -1.7600    0.5314    0.8698 C   0  0  0  0  0  0  0  0  0  5  0  0
   -2.1113   -0.6200    0.7508 O   0  0  0  0  0  0  0  0  0  6  0  0
   -0.3573    0.9504    0.9195 C   0  0  0  0  0  0  0  0  0  7  0  0
    0.6267    0.0172    0.6888 C   0  0  0  0  0  0  0  0  0  8  0  0
    0.4264   -1.3059    0.3864 N   0  0  0  0  0  0  0  0  0  9  0  0
    1.4567   -2.1361    0.0973 C   0  0  0  0  0  0  0  0  0 10  0  0
    2.6180   -1.7710    0.1543 O   0  0  0  0  0  0  0  0  0 11  0  0
    1.0734   -3.5410   -0.3253 C   0  0  0  0  0  0  0  0  0 12  0  0
    0.0452   -3.7730   -0.0207 H   0  0  0  0  0  0  0  0  0 13  0  0
    1.7648   -4.2340    0.1510 H   0  0  0  0  0  0  0  0  0 14  0  0
    1.2091   -3.6686   -1.8379 C   0  0  1  0  0  0  0  0  0 15  0  0
    2.1499   -3.2089   -2.1606 H   0  0  0  0  0  0  0  0  0 16  0  0
    1.1612   -5.3966   -2.3969 S   0  0  0  0  0  0  0  0  0 17  0  0
   -0.1137   -4.9815   -3.5254 C   0  0  0  0  0  0  0  0  0 18  0  0
   -0.6078   -5.9350   -4.3481 N   0  0  0  0  0  0  0  0  0 22  0  0
   -0.4732   -6.8896   -4.0625 H   0  0  0  0  0  0  0  0  0 23  0  0
   -1.2574   -5.6060   -5.0410 H   0  0  0  0  0  0  0  0  0 24  0  0
   -0.5438   -3.7593   -3.5022 N   0  0  0  0  0  0  0  0  0 19  0  0
    0.0556   -2.9702   -2.5869 C   0  0  0  0  0  0  0  0  0 20  0  0
   -0.2798   -1.8293   -2.3442 O   0  0  0  0  0  0  0  0  0 21  0  0
   -0.5596   -1.5526    0.2745 H   0  0  0  0  0  0  0  0  0 25  0  0
    2.2211    0.6598    0.8126 S   0  0  0  0  0  0  0  0  0 26  0  0
    1.5430    2.2390    1.1877 C   0  0  0  0  0  0  0  0  0 27  0  0
    0.1818    2.2363    1.1895 C   0  0  0  0  0  0  0  0  0 28  0  0
   -0.5961    3.4856    1.4820 C   0  0  0  0  0  0  0  0  0 29  0  0
   -1.0305    3.3990    2.4819 H   0  0  0  0  0  0  0  0  0 39  0  0
   -1.4171    3.5817    0.7744 H   0  0  0  0  0  0  0  0  0 40  0  0
    0.3005    4.7341    1.4025 C   0  0  0  0  0  0  0  0  0 30  0  0
   -0.2390    5.5904    1.8134 H   0  0  0  0  0  0  0  0  0 37  0  0
    0.5217    4.9537    0.3581 H   0  0  0  0  0  0  0  0  0 38  0  0
    1.6077    4.5016    2.1560 C   0  0  0  0  0  0  0  0  0 31  0  0
    1.3810    4.1921    3.1801 H   0  0  0  0  0  0  0  0  0 35  0  0
    2.1903    5.4163    2.2002 H   0  0  0  0  0  0  0  0  0 36  0  0
    2.4139    3.4080    1.4520 C   0  0  0  0  0  0  0  0  0 32  0  0
    3.2636    3.0964    2.0678 H   0  0  0  0  0  0  0  0  0 33  0  0
    2.8161    3.7905    0.5120 H   0  0  0  0  0  0  0  0  0 34  0  0
  1  2  1  0
  1  3  1  0
  1  4  1  0
  1  5  1  0
  5  6  1  0
  6  7  2  0
  6  8  1  0
  8  9  4  0
  9 10  1  0
 10 11  1  0
 11 12  2  0
 11 13  1  0
 13 14  1  0
 13 15  1  0
 13 16  1  0
 16 17  1  6
 16 18  1  0
 18 19  2  0
 19 20  1  0
 20 21  1  0
 20 22  1  0
 19 23  1  0
 23 24  2  0
 24 25  1  0
 10 26  1  0
  9 27  4  0
 27 28  4  0
 28 29  4  0
 29 30  1  0
 30 31  1  0
 30 32  1  0
 30 33  1  0
 33 34  1  0
 33 35  1  0
 33 36  1  0
 36 37  1  0
 36 38  1  0
 36 39  1  0
 39 40  1  0
 39 41  1  0
 29  8  4  0
 24 16  1  0
 39 28  1  0
M  CHG  2  18   1  25  -1
M  END
>  <sample_id>  (445)
train::COC(=O)c1c(NC(=O)CC2SC(N)=NC2=O)sc2c1CCCC2__gen0000

>  <partition>  (445)
BAT_EXTERNAL_CONFIRM

>  <method>  (445)
BA_seed193

>  <candidate>  (445)
primary

$$$$
train::COC(=O)c1c(NC(=O)CC2SC(N)=NC2=O)sc2c1CCCC2__gen0001
     RDKit          3D

 41 43  0  0  0  0  0  0  0  0999 V2000
    3.3152    0.4036    2.9863 C   0  0  0  0  0  0  0  0  0  0  0  0
    2.7663    1.2576    3.4011 H   0  0  0  0  0  0  0  0  0  1  0  0
    3.5906   -0.3005    3.7688 H   0  0  0  0  0  0  0  0  0  2  0  0
    4.2124    0.7824    2.4757 H   0  0  0  0  0  0  0  0  0  3  0  0
    2.5081   -0.3118    2.0759 O   0  0  0  0  0  0  0  0  0  4  0  0
    1.9995    0.3911    1.0599 C   0  0  0  0  0  0  0  0  0  5  0  0
    2.2378    1.5772    0.9019 O   0  0  0  0  0  0  0  0  0  6  0  0
    1.1418   -0.3820    0.1630 C   0  0  0  0  0  0  0  0  0  7  0  0
    0.3872    0.2660   -0.7872 C   0  0  0  0  0  0  0  0  0  8  0  0
    0.3663    1.6271   -0.9920 N   0  0  0  0  0  0  0  0  0  9  0  0
   -0.4811    2.1787   -1.8849 C   0  0  0  0  0  0  0  0  0 10  0  0
   -1.1950    1.5019   -2.5975 O   0  0  0  0  0  0  0  0  0 11  0  0
   -0.5465    3.7019   -1.8516 C   0  0  0  0  0  0  0  0  0 12  0  0
   -0.6626    4.0834   -2.8650 H   0  0  0  0  0  0  0  0  0 13  0  0
    0.3563    4.1193   -1.3973 H   0  0  0  0  0  0  0  0  0 14  0  0
   -1.7474    4.1072   -1.0112 C   0  0  1  0  0  0  0  0  0 15  0  0
   -1.8116    5.1935   -0.9105 H   0  0  0  0  0  0  0  0  0 16  0  0
   -3.3179    3.5340   -1.7173 S   0  0  0  0  0  0  0  0  0 17  0  0
   -3.5025    2.3928   -0.3979 C   0  0  0  0  0  0  0  0  0 18  0  0
   -4.5570    1.5546   -0.3723 N   0  0  0  0  0  0  0  0  0 22  0  0
   -4.9932    1.3707   -1.2642 H   0  0  0  0  0  0  0  0  0 23  0  0
   -4.5176    0.8738    0.3709 H   0  0  0  0  0  0  0  0  0 24  0  0
   -2.6212    2.4761    0.5542 N   0  0  0  0  0  0  0  0  0 19  0  0
   -1.6667    3.4125    0.3662 C   0  0  0  0  0  0  0  0  0 20  0  0
   -0.8028    3.6814    1.1649 O   0  0  0  0  0  0  0  0  0 21  0  0
    0.9594    2.1500   -0.3417 H   0  0  0  0  0  0  0  0  0 25  0  0
   -0.5852   -0.7960   -1.7292 S   0  0  0  0  0  0  0  0  0 26  0  0
    0.0351   -2.1662   -0.8234 C   0  0  0  0  0  0  0  0  0 27  0  0
    0.9380   -1.7930    0.1185 C   0  0  0  0  0  0  0  0  0 28  0  0
    1.6214   -2.8054    0.9927 C   0  0  0  0  0  0  0  0  0 29  0  0
    2.6806   -2.5648    1.0844 H   0  0  0  0  0  0  0  0  0 39  0  0
    1.1900   -2.7433    1.9995 H   0  0  0  0  0  0  0  0  0 40  0  0
    1.4598   -4.2185    0.4342 C   0  0  0  0  0  0  0  0  0 30  0  0
    2.0771   -4.3358   -0.4541 H   0  0  0  0  0  0  0  0  0 37  0  0
    1.7851   -4.9457    1.1757 H   0  0  0  0  0  0  0  0  0 38  0  0
   -0.0020   -4.4703    0.0520 C   0  0  0  0  0  0  0  0  0 31  0  0
   -0.1390   -5.5149   -0.2363 H   0  0  0  0  0  0  0  0  0 35  0  0
   -0.6449   -4.2639    0.9097 H   0  0  0  0  0  0  0  0  0 36  0  0
   -0.3989   -3.5507   -1.1138 C   0  0  0  0  0  0  0  0  0 32  0  0
   -1.4878   -3.5770   -1.2641 H   0  0  0  0  0  0  0  0  0 33  0  0
    0.0531   -3.8969   -2.0440 H   0  0  0  0  0  0  0  0  0 34  0  0
  1  2  1  0
  1  3  1  0
  1  4  1  0
  1  5  1  0
  5  6  1  0
  6  7  2  0
  6  8  1  0
  8  9  4  0
  9 10  1  0
 10 11  1  0
 11 12  2  0
 11 13  1  0
 13 14  1  0
 13 15  1  0
 13 16  1  0
 16 17  1  1
 16 18  1  0
 18 19  2  0
 19 20  1  0
 20 21  1  0
 20 22  1  0
 19 23  1  0
 23 24  2  0
 24 25  1  0
 10 26  1  0
  9 27  4  0
 27 28  4  0
 28 29  4  0
 29 30  1  0
 30 31  1  0
 30 32  1  0
 30 33  1  0
 33 34  1  0
 33 35  1  0
 33 36  1  0
 36 37  1  0
 36 38  1  0
 36 39  1  0
 39 40  1  0
 39 41  1  0
 29  8  4  0
 24 16  1  0
 39 28  1  0
M  CHG  2  18   1  25  -1
M  END
>  <sample_id>  (446)
train::COC(=O)c1c(NC(=O)CC2SC(N)=NC2=O)sc2c1CCCC2__gen0001

>  <partition>  (446)
BAT_EXTERNAL_CONFIRM

>  <method>  (446)
BA_seed193

>  <candidate>  (446)
primary

$$$$
train::COC(=O)c1c(NC(=O)CC2SC(N)=NC2=O)sc2c1CCCC2__gen0002
     RDKit          3D

 41 43  0  0  0  0  0  0  0  0999 V2000
    1.7824   -3.3984   -1.0195 C   0  0  0  0  0  0  0  0  0  0  0  0
    1.6844   -4.4080   -0.6387 H   0  0  0  0  0  0  0  0  0  1  0  0
    1.3453   -3.3158   -2.0180 H   0  0  0  0  0  0  0  0  0  2  0  0
    2.8313   -3.0935   -1.0751 H   0  0  0  0  0  0  0  0  0  3  0  0
    1.0828   -2.5627   -0.1032 O   0  0  0  0  0  0  0  0  0  4  0  0
    1.1322   -1.2385   -0.3598 C   0  0  0  0  0  0  0  0  0  5  0  0
    1.7231   -0.8123   -1.3269 O   0  0  0  0  0  0  0  0  0  6  0  0
    0.3973   -0.4219    0.5815 C   0  0  0  0  0  0  0  0  0  7  0  0
    0.4134    0.9603    0.4687 C   0  0  0  0  0  0  0  0  0  8  0  0
    1.0872    1.6687   -0.4979 N   0  0  0  0  0  0  0  0  0  9  0  0
    0.9662    3.0042   -0.6118 C   0  0  0  0  0  0  0  0  0 10  0  0
    0.3943    3.6911    0.1997 O   0  0  0  0  0  0  0  0  0 11  0  0
    1.6108    3.5632   -1.8855 C   0  0  0  0  0  0  0  0  0 12  0  0
    1.5066    4.6531   -1.8583 H   0  0  0  0  0  0  0  0  0 13  0  0
    2.6597    3.3031   -1.9253 H   0  0  0  0  0  0  0  0  0 14  0  0
    0.9015    3.0216   -3.1377 C   0  0  1  0  0  0  0  0  0 15  0  0
    1.0595    3.7053   -3.9741 H   0  0  0  0  0  0  0  0  0 16  0  0
    1.4297    1.3760   -3.6252 S   0  0  0  0  0  0  0  0  0 17  0  0
   -0.1979    0.7557   -3.2498 C   0  0  0  0  0  0  0  0  0 18  0  0
   -0.4220   -0.5808   -3.3307 N   0  0  0  0  0  0  0  0  0 22  0  0
    0.4207   -1.1325   -3.2706 H   0  0  0  0  0  0  0  0  0 23  0  0
   -1.3700   -0.8443   -3.1411 H   0  0  0  0  0  0  0  0  0 24  0  0
   -1.0866    1.6332   -2.9232 N   0  0  0  0  0  0  0  0  0 19  0  0
   -0.6429    2.9176   -2.8940 C   0  0  0  0  0  0  0  0  0 20  0  0
   -1.3326    3.8887   -2.7184 O   0  0  0  0  0  0  0  0  0 21  0  0
    1.6006    1.0974   -1.1543 H   0  0  0  0  0  0  0  0  0 25  0  0
   -0.5191    1.7554    1.6781 S   0  0  0  0  0  0  0  0  0 26  0  0
   -0.9600    0.2095    2.3542 C   0  0  0  0  0  0  0  0  0 27  0  0
   -0.4133   -0.8466    1.6708 C   0  0  0  0  0  0  0  0  0 28  0  0
   -0.6798   -2.2652    2.0948 C   0  0  0  0  0  0  0  0  0 29  0  0
   -0.8908   -2.8708    1.2053 H   0  0  0  0  0  0  0  0  0 39  0  0
    0.2347   -2.6684    2.5597 H   0  0  0  0  0  0  0  0  0 40  0  0
   -1.8492   -2.3452    3.0683 C   0  0  0  0  0  0  0  0  0 30  0  0
   -2.7772   -2.1802    2.5183 H   0  0  0  0  0  0  0  0  0 37  0  0
   -1.8898   -3.3466    3.5002 H   0  0  0  0  0  0  0  0  0 38  0  0
   -1.7116   -1.2924    4.1675 C   0  0  0  0  0  0  0  0  0 31  0  0
   -0.7458   -1.3923    4.6495 H   0  0  0  0  0  0  0  0  0 35  0  0
   -2.4907   -1.4431    4.9231 H   0  0  0  0  0  0  0  0  0 36  0  0
   -1.8371    0.0931    3.5580 C   0  0  0  0  0  0  0  0  0 32  0  0
   -1.5653    0.8694    4.2793 H   0  0  0  0  0  0  0  0  0 33  0  0
   -2.8820    0.2929    3.2620 H   0  0  0  0  0  0  0  0  0 34  0  0
  1  2  1  0
  1  3  1  0
  1  4  1  0
  1  5  1  0
  5  6  1  0
  6  7  2  0
  6  8  1  0
  8  9  4  0
  9 10  1  0
 10 11  1  0
 11 12  2  0
 11 13  1  0
 13 14  1  0
 13 15  1  0
 13 16  1  0
 16 17  1  6
 16 18  1  0
 18 19  2  0
 19 20  1  0
 20 21  1  0
 20 22  1  0
 19 23  1  0
 23 24  2  0
 24 25  1  0
 10 26  1  0
  9 27  4  0
 27 28  4  0
 28 29  4  0
 29 30  1  0
 30 31  1  0
 30 32  1  0
 30 33  1  0
 33 34  1  0
 33 35  1  0
 33 36  1  0
 36 37  1  0
 36 38  1  0
 36 39  1  0
 39 40  1  0
 39 41  1  0
 29  8  4  0
 24 16  1  0
 39 28  1  0
M  CHG  2  18   1  25  -1
M  END
>  <sample_id>  (447)
train::COC(=O)c1c(NC(=O)CC2SC(N)=NC2=O)sc2c1CCCC2__gen0002

>  <partition>  (447)
BAT_EXTERNAL_CONFIRM

>  <method>  (447)
BA_seed193

>  <candidate>  (447)
primary

$$$$
train::C1CSC2(N1)C1CC3CC2CC(C1)C31[NH2+]CCS1__gen0000
     RDKit          3D

 41 45  0  0  0  0  0  0  0  0999 V2000
    1.7413    3.4397   -1.1819 C   0  0  0  0  0  0  0  0  0  0  0  0
    2.1215    4.4106   -0.8399 H   0  0  0  0  0  0  0  0  0 39  0  0
    0.8388    3.5849   -1.7633 H   0  0  0  0  0  0  0  0  0 40  0  0
    1.5999    2.5661   -0.0358 N   0  0  0  0  0  0  0  0  0  1  0  0
    1.0427    2.9053    0.7125 H   0  0  0  0  0  0  0  0  0 38  0  0
    1.3428    1.2093   -0.4115 C   0  0  1  0  0  0  0  0  0  2  0  0
    1.6473    0.1867    0.6878 C   0  0  1  0  0  0  0  0  0  3  0  0
    2.6596    0.3682    1.0580 H   0  0  0  0  0  0  0  0  0 33  0  0
    0.6640    0.3169    1.8511 C   0  0  0  0  0  0  0  0  0  4  0  0
    0.7440    1.3137    2.2757 H   0  0  0  0  0  0  0  0  0  5  0  0
    0.8997   -0.4201    2.6223 H   0  0  0  0  0  0  0  0  0  6  0  0
   -0.7639    0.0936    1.3370 C   0  0  2  0  0  0  0  0  0  7  0  0
   -1.4551    0.1692    2.1813 H   0  0  0  0  0  0  0  0  0 32  0  0
   -0.8998   -1.2802    0.6966 C   0  0  2  0  0  0  0  0  0  8  0  0
    0.1283   -1.4643   -0.4204 C   0  0  2  0  0  0  0  0  0  9  0  0
    0.0572   -2.4818   -0.8033 H   0  0  0  0  0  0  0  0  0 21  0  0
    1.5506   -1.2231    0.1107 C   0  0  0  0  0  0  0  0  0 10  0  0
    1.7923   -1.9429    0.9002 H   0  0  0  0  0  0  0  0  0 11  0  0
    2.2494   -1.3691   -0.7070 H   0  0  0  0  0  0  0  0  0 12  0  0
   -0.1546   -0.4400   -1.5195 C   0  0  0  0  0  0  0  0  0 13  0  0
    0.5912   -0.5529   -2.3095 H   0  0  0  0  0  0  0  0  0 14  0  0
   -1.1257   -0.6074   -1.9937 H   0  0  0  0  0  0  0  0  0 20  0  0
   -0.0871    0.9698   -0.9199 C   0  0  1  0  0  0  0  0  0 15  0  0
   -0.3404    1.6979   -1.7053 H   0  0  0  0  0  0  0  0  0 19  0  0
   -1.0393    1.1667    0.2712 C   0  0  0  0  0  0  0  0  0 16  0  0
   -2.0742    1.1636   -0.0956 H   0  0  0  0  0  0  0  0  0 17  0  0
   -0.8980    2.1473    0.7385 H   0  0  0  0  0  0  0  0  0 18  0  0
   -2.3412   -1.4017    0.2312 N   0  0  0  0  0  0  0  0  0 22  0  0
   -2.8582   -0.5294    0.3722 H   0  0  0  0  0  0  0  0  0 23  0  0
   -2.3262   -1.6415   -0.7563 H   0  0  0  0  0  0  0  0  0 24  0  0
   -3.0573   -2.5013    0.9545 C   0  0  0  0  0  0  0  0  0 25  0  0
   -3.3581   -2.1895    1.9678 H   0  0  0  0  0  0  0  0  0 30  0  0
   -3.9465   -2.8159    0.4220 H   0  0  0  0  0  0  0  0  0 31  0  0
   -2.0279   -3.6007    1.0797 C   0  0  0  0  0  0  0  0  0 26  0  0
   -1.7828   -4.0152    0.1176 H   0  0  0  0  0  0  0  0  0 27  0  0
   -2.3086   -4.3912    1.7694 H   0  0  0  0  0  0  0  0  0 28  0  0
   -0.6136   -2.7188    1.8173 S   0  0  0  0  0  0  0  0  0 29  0  0
    2.5979    0.9741   -1.7969 S   0  0  0  0  0  0  0  0  0 34  0  0
    2.7738    2.7921   -2.0559 C   0  0  0  0  0  0  0  0  0 35  0  0
    2.6454    3.0023   -3.1192 H   0  0  0  0  0  0  0  0  0 36  0  0
    3.7710    3.1090   -1.7396 H   0  0  0  0  0  0  0  0  0 37  0  0
  1  2  1  0
  1  3  1  0
  1  4  1  0
  4  5  1  0
  4  6  1  0
  6  7  1  0
  7  8  1  1
  7  9  1  0
  9 10  1  0
  9 11  1  0
  9 12  1  0
 12 13  1  1
 12 14  1  0
 14 15  1  0
 15 16  1  6
 15 17  1  0
 17 18  1  0
 17 19  1  0
 15 20  1  0
 20 21  1  0
 20 22  1  0
 20 23  1  0
 23 24  1  6
 23 25  1  0
 25 26  1  0
 25 27  1  0
 14 28  1  0
 28 29  1  0
 28 30  1  0
 28 31  1  0
 31 32  1  0
 31 33  1  0
 31 34  1  0
 34 35  1  0
 34 36  1  0
 34 37  1  0
  6 38  1  1
 38 39  1  0
 39 40  1  0
 39 41  1  0
 39  1  1  0
 23  6  1  0
 17  7  1  0
 25 12  1  0
 14 37  1  1
M  CHG  1  28   1
M  END
>  <sample_id>  (448)
train::C1CSC2(N1)C1CC3CC2CC(C1)C31[NH2+]CCS1__gen0000

>  <partition>  (448)
BAT_EXTERNAL_CONFIRM

>  <method>  (448)
BA_seed193

>  <candidate>  (448)
primary

$$$$
train::C1CSC2(N1)C1CC3CC2CC(C1)C31[NH2+]CCS1__gen0001
     RDKit          3D

 41 45  0  0  0  0  0  0  0  0999 V2000
   -0.5926   -3.9870   -0.7292 C   0  0  0  0  0  0  0  0  0  0  0  0
   -1.3673   -4.6720   -1.0797 H   0  0  0  0  0  0  0  0  0 39  0  0
    0.0890   -3.7392   -1.5515 H   0  0  0  0  0  0  0  0  0 40  0  0
   -1.2120   -2.7761   -0.1943 N   0  0  0  0  0  0  0  0  0  1  0  0
   -1.9002   -2.9489    0.5208 H   0  0  0  0  0  0  0  0  0 38  0  0
   -0.1889   -1.8317    0.2114 C   0  0  2  0  0  0  0  0  0  2  0  0
    0.2714   -0.8466    1.3065 C   0  0  2  0  0  0  0  0  0  3  0  0
    0.4953   -1.4024    2.2041 H   0  0  0  0  0  0  0  0  0 33  0  0
   -0.8663    0.1506    1.6072 C   0  0  0  0  0  0  0  0  0  4  0  0
   -0.5605    0.7821    2.4329 H   0  0  0  0  0  0  0  0  0  5  0  0
   -1.7382   -0.4180    1.9322 H   0  0  0  0  0  0  0  0  0  6  0  0
   -1.2227    0.9512    0.3463 C   0  0  1  0  0  0  0  0  0  7  0  0
   -2.0311    1.6457    0.5458 H   0  0  0  0  0  0  0  0  0 32  0  0
    0.0152    1.7206   -0.1227 C   0  0  2  0  0  0  0  0  0  8  0  0
    1.1759    0.7753   -0.3987 C   0  0  1  0  0  0  0  0  0  9  0  0
    2.0418    1.3496   -0.7179 H   0  0  0  0  0  0  0  0  0 21  0  0
    1.5080   -0.0665    0.8388 C   0  0  0  0  0  0  0  0  0 10  0  0
    1.8641    0.5562    1.6633 H   0  0  0  0  0  0  0  0  0 11  0  0
    2.3236   -0.7311    0.5597 H   0  0  0  0  0  0  0  0  0 12  0  0
    0.7513   -0.1797   -1.5213 C   0  0  0  0  0  0  0  0  0 13  0  0
    1.5831   -0.8537   -1.7562 H   0  0  0  0  0  0  0  0  0 14  0  0
    0.5188    0.3834   -2.4387 H   0  0  0  0  0  0  0  0  0 20  0  0
   -0.4731   -0.9593   -1.0750 C   0  0  2  0  0  0  0  0  0 15  0  0
   -0.7297   -1.6033   -1.9167 H   0  0  0  0  0  0  0  0  0 19  0  0
   -1.6486   -0.0366   -0.7577 C   0  0  0  0  0  0  0  0  0 16  0  0
   -1.9461    0.5131   -1.6433 H   0  0  0  0  0  0  0  0  0 17  0  0
   -2.4988   -0.6169   -0.3920 H   0  0  0  0  0  0  0  0  0 18  0  0
    0.3922    2.7657    0.8841 N   0  0  0  0  0  0  0  0  0 22  0  0
    1.3584    2.5762    1.2050 H   0  0  0  0  0  0  0  0  0 23  0  0
   -0.2285    2.7150    1.6972 H   0  0  0  0  0  0  0  0  0 24  0  0
    0.3450    4.1490    0.3383 C   0  0  0  0  0  0  0  0  0 25  0  0
   -0.6408    4.5682    0.4831 H   0  0  0  0  0  0  0  0  0 30  0  0
    1.0877    4.7907    0.8256 H   0  0  0  0  0  0  0  0  0 31  0  0
    0.6451    4.0208   -1.1483 C   0  0  0  0  0  0  0  0  0 26  0  0
    1.6864    3.7939   -1.3209 H   0  0  0  0  0  0  0  0  0 27  0  0
    0.3515    4.8819   -1.7399 H   0  0  0  0  0  0  0  0  0 28  0  0
   -0.4478    2.6748   -1.6732 S   0  0  0  0  0  0  0  0  0 29  0  0
    0.9740   -3.1412    1.1510 S   0  0  0  0  0  0  0  0  0 34  0  0
    0.2160   -4.5876    0.3542 C   0  0  0  0  0  0  0  0  0 35  0  0
    1.0425   -5.2269    0.0515 H   0  0  0  0  0  0  0  0  0 36  0  0
   -0.4431   -5.1397    1.0181 H   0  0  0  0  0  0  0  0  0 37  0  0
  1  2  1  0
  1  3  1  0
  1  4  1  0
  4  5  1  0
  4  6  1  0
  6  7  1  0
  7  8  1  6
  7  9  1  0
  9 10  1  0
  9 11  1  0
  9 12  1  0
 12 13  1  6
 12 14  1  0
 14 15  1  0
 15 16  1  1
 15 17  1  0
 17 18  1  0
 17 19  1  0
 15 20  1  0
 20 21  1  0
 20 22  1  0
 20 23  1  0
 23 24  1  1
 23 25  1  0
 25 26  1  0
 25 27  1  0
 14 28  1  0
 28 29  1  0
 28 30  1  0
 28 31  1  0
 31 32  1  0
 31 33  1  0
 31 34  1  0
 34 35  1  0
 34 36  1  0
 34 37  1  0
  6 38  1  6
 38 39  1  0
 39 40  1  0
 39 41  1  0
 39  1  1  0
 23  6  1  0
 17  7  1  0
 25 12  1  0
 14 37  1  6
M  CHG  1  28   1
M  END
>  <sample_id>  (449)
train::C1CSC2(N1)C1CC3CC2CC(C1)C31[NH2+]CCS1__gen0001

>  <partition>  (449)
BAT_EXTERNAL_CONFIRM

>  <method>  (449)
BA_seed193

>  <candidate>  (449)
primary

$$$$
train::C1CSC2(N1)C1CC3CC2CC(C1)C31[NH2+]CCS1__gen0002
     RDKit          3D

 41 45  0  0  0  0  0  0  0  0999 V2000
    3.3981    1.9740   -0.0097 C   0  0  0  0  0  0  0  0  0  0  0  0
    2.8951    2.4652   -0.8427 H   0  0  0  0  0  0  0  0  0 39  0  0
    3.9636    2.7147    0.5630 H   0  0  0  0  0  0  0  0  0 40  0  0
    2.3889    1.3804    0.8603 N   0  0  0  0  0  0  0  0  0  1  0  0
    2.8505    1.1874    1.7384 H   0  0  0  0  0  0  0  0  0 38  0  0
    1.9095    0.1513    0.2668 C   0  0  2  0  0  0  0  0  0  2  0  0
    1.1452    0.2411   -1.0502 C   0  0  1  0  0  0  0  0  0  3  0  0
    1.8288    0.5227   -1.8560 H   0  0  0  0  0  0  0  0  0 33  0  0
    0.4724   -1.0713   -1.4660 C   0  0  0  0  0  0  0  0  0  4  0  0
   -0.0855   -0.9217   -2.3858 H   0  0  0  0  0  0  0  0  0  5  0  0
    1.2276   -1.8350   -1.6390 H   0  0  0  0  0  0  0  0  0  6  0  0
   -0.4706   -1.5658   -0.3391 C   0  0  2  0  0  0  0  0  0  7  0  0
   -0.9156   -2.5542   -0.5281 H   0  0  0  0  0  0  0  0  0 32  0  0
   -1.6237   -0.5404   -0.1429 C   0  0  2  0  0  0  0  0  0  8  0  0
   -0.9220    0.7924    0.2452 C   0  0  2  0  0  0  0  0  0  9  0  0
   -1.6335    1.6041    0.3589 H   0  0  0  0  0  0  0  0  0 21  0  0
    0.0446    1.2852   -0.8282 C   0  0  0  0  0  0  0  0  0 10  0  0
    0.5098    2.2128   -0.4869 H   0  0  0  0  0  0  0  0  0 11  0  0
   -0.4575    1.4775   -1.7720 H   0  0  0  0  0  0  0  0  0 12  0  0
   -0.1465    0.4927    1.5924 C   0  0  0  0  0  0  0  0  0 13  0  0
   -0.8008    0.0786    2.3452 H   0  0  0  0  0  0  0  0  0 14  0  0
    0.2585    1.4340    1.9639 H   0  0  0  0  0  0  0  0  0 20  0  0
    1.0018   -0.4742    1.3274 C   0  0  1  0  0  0  0  0  0 15  0  0
    1.5814   -0.6371    2.2414 H   0  0  0  0  0  0  0  0  0 19  0  0
    0.4165   -1.8117    0.8656 C   0  0  0  0  0  0  0  0  0 16  0  0
    1.2133   -2.4921    0.6025 H   0  0  0  0  0  0  0  0  0 17  0  0
   -0.1602   -2.2686    1.6718 H   0  0  0  0  0  0  0  0  0 18  0  0
   -2.8679   -0.1800    0.7374 N   0  0  0  0  0  0  0  0  0 22  0  0
   -2.7508    0.7443    1.1830 H   0  0  0  0  0  0  0  0  0 23  0  0
   -3.0090   -0.8506    1.4964 H   0  0  0  0  0  0  0  0  0 24  0  0
   -4.1059   -0.0589   -0.0606 C   0  0  0  0  0  0  0  0  0 25  0  0
   -4.9831    0.0433    0.5866 H   0  0  0  0  0  0  0  0  0 30  0  0
   -4.0345    0.7975   -0.7314 H   0  0  0  0  0  0  0  0  0 31  0  0
   -4.1483   -1.3550   -0.8346 C   0  0  0  0  0  0  0  0  0 26  0  0
   -4.3195   -2.1998   -0.1600 H   0  0  0  0  0  0  0  0  0 27  0  0
   -4.8508   -1.3995   -1.6607 H   0  0  0  0  0  0  0  0  0 28  0  0
   -2.5078   -1.4277   -1.5689 S   0  0  0  0  0  0  0  0  0 29  0  0
    3.4956   -0.7361   -0.2356 S   0  0  0  0  0  0  0  0  0 34  0  0
    4.3391    0.8993   -0.5141 C   0  0  0  0  0  0  0  0  0 35  0  0
    5.2814    0.9495    0.0446 H   0  0  0  0  0  0  0  0  0 36  0  0
    4.5718    0.9314   -1.5783 H   0  0  0  0  0  0  0  0  0 37  0  0
  1  2  1  0
  1  3  1  0
  1  4  1  0
  4  5  1  0
  4  6  1  0
  6  7  1  0
  7  8  1  6
  7  9  1  0
  9 10  1  0
  9 11  1  0
  9 12  1  0
 12 13  1  6
 12 14  1  0
 14 15  1  0
 15 16  1  1
 15 17  1  0
 17 18  1  0
 17 19  1  0
 15 20  1  0
 20 21  1  0
 20 22  1  0
 20 23  1  0
 23 24  1  1
 23 25  1  0
 25 26  1  0
 25 27  1  0
 14 28  1  0
 28 29  1  0
 28 30  1  0
 28 31  1  0
 31 32  1  0
 31 33  1  0
 31 34  1  0
 34 35  1  0
 34 36  1  0
 34 37  1  0
  6 38  1  6
 38 39  1  0
 39 40  1  0
 39 41  1  0
 39  1  1  0
 23  6  1  0
 17  7  1  0
 25 12  1  0
 14 37  1  6
M  CHG  1  28   1
M  END
>  <sample_id>  (450)
train::C1CSC2(N1)C1CC3CC2CC(C1)C31[NH2+]CCS1__gen0002

>  <partition>  (450)
BAT_EXTERNAL_CONFIRM

>  <method>  (450)
BA_seed193

>  <candidate>  (450)
primary

$$$$
train::Cc1cccc(NC(=O)C2CCCN(C(=O)NC3CCCCC3)C2)c1C__gen0000
     RDKit          3D

 57 59  0  0  0  0  0  0  0  0999 V2000
    0.2789    3.8060    5.1994 C   0  0  0  0  0  0  0  0  0  0  0  0
   -0.3482    2.4805    5.1100 C   0  0  0  0  0  0  0  0  0  1  0  0
   -0.9396    1.9322    6.2415 C   0  0  0  0  0  0  0  0  0  2  0  0
   -0.9000    2.4740    7.1735 H   0  0  0  0  0  0  0  0  0 53  0  0
   -1.5487    0.6888    6.2030 C   0  0  0  0  0  0  0  0  0  3  0  0
   -2.0055    0.2767    7.0918 H   0  0  0  0  0  0  0  0  0 52  0  0
   -1.5945   -0.0172    5.0188 C   0  0  0  0  0  0  0  0  0  4  0  0
   -2.0725   -0.9919    4.9762 H   0  0  0  0  0  0  0  0  0 51  0  0
   -1.0334    0.5109    3.8682 C   0  0  0  0  0  0  0  0  0  5  0  0
   -1.0224   -0.1928    2.6697 N   0  0  0  0  0  0  0  0  0 11  0  0
   -1.6707   -1.3521    2.3370 C   0  0  0  0  0  0  0  0  0 12  0  0
   -2.3884   -2.0129    3.0472 O   0  0  0  0  0  0  0  0  0 13  0  0
   -1.4295   -1.6873    0.8626 C   0  0  1  0  0  0  0  0  0 14  0  0
   -0.3609   -1.5600    0.6374 H   0  0  0  0  0  0  0  0  0 49  0  0
   -1.8799   -3.0849    0.4606 C   0  0  0  0  0  0  0  0  0 15  0  0
   -1.3703   -3.8285    1.0664 H   0  0  0  0  0  0  0  0  0 47  0  0
   -2.9465   -3.1954    0.6430 H   0  0  0  0  0  0  0  0  0 48  0  0
   -1.5418   -3.3106   -1.0223 C   0  0  0  0  0  0  0  0  0 16  0  0
   -0.4756   -3.3274   -1.1487 H   0  0  0  0  0  0  0  0  0 17  0  0
   -1.9586   -4.2744   -1.3606 H   0  0  0  0  0  0  0  0  0 18  0  0
   -2.1586   -2.1982   -1.8856 C   0  0  0  0  0  0  0  0  0 19  0  0
   -3.2489   -2.2302   -1.8077 H   0  0  0  0  0  0  0  0  0 45  0  0
   -1.8896   -2.3296   -2.9321 H   0  0  0  0  0  0  0  0  0 46  0  0
   -1.7440   -0.9108   -1.4130 N   0  0  0  0  0  0  0  0  0 20  0  0
   -0.5275   -0.3087   -1.7220 C   0  0  0  0  0  0  0  0  0 21  0  0
   -0.0220    0.4863   -0.9401 O   0  0  0  0  0  0  0  0  0 22  0  0
    0.0269   -0.6109   -2.9365 N   0  0  0  0  0  0  0  0  0 23  0  0
   -0.4721   -1.2076   -3.5802 H   0  0  0  0  0  0  0  0  0 24  0  0
    1.2444    0.0224   -3.4049 C   0  0  1  0  0  0  0  0  0 25  0  0
    1.4208    0.8424   -2.7009 H   0  0  0  0  0  0  0  0  0 41  0  0
    2.4179   -0.9583   -3.3284 C   0  0  0  0  0  0  0  0  0 26  0  0
    2.2305   -1.7718   -4.0352 H   0  0  0  0  0  0  0  0  0 39  0  0
    2.4475   -1.4011   -2.3258 H   0  0  0  0  0  0  0  0  0 40  0  0
    3.7226   -0.2599   -3.6352 C   0  0  0  0  0  0  0  0  0 27  0  0
    4.1478    0.1493   -2.7137 H   0  0  0  0  0  0  0  0  0 37  0  0
    4.4241   -0.9889   -4.0239 H   0  0  0  0  0  0  0  0  0 38  0  0
    3.5414    0.8718   -4.6249 C   0  0  0  0  0  0  0  0  0 28  0  0
    3.3109    1.8082   -4.1123 H   0  0  0  0  0  0  0  0  0 35  0  0
    4.4659    1.0441   -5.1823 H   0  0  0  0  0  0  0  0  0 36  0  0
    2.4091    0.5699   -5.5832 C   0  0  0  0  0  0  0  0  0 29  0  0
    2.3528    1.2999   -6.3930 H   0  0  0  0  0  0  0  0  0 33  0  0
    2.5717   -0.4160   -6.0493 H   0  0  0  0  0  0  0  0  0 34  0  0
    1.0633    0.5555   -4.8329 C   0  0  0  0  0  0  0  0  0 30  0  0
    0.3368   -0.0653   -5.3530 H   0  0  0  0  0  0  0  0  0 31  0  0
    0.6611    1.5638   -4.7901 H   0  0  0  0  0  0  0  0  0 32  0  0
   -2.1644   -0.6615   -0.0440 C   0  0  0  0  0  0  0  0  0 42  0  0
   -1.8948    0.3545    0.2015 H   0  0  0  0  0  0  0  0  0 43  0  0
   -3.2431   -0.8057    0.0224 H   0  0  0  0  0  0  0  0  0 44  0  0
   -0.5286    0.2506    1.9099 H   0  0  0  0  0  0  0  0  0 50  0  0
   -0.3843    1.7638    3.8933 C   0  0  0  0  0  0  0  0  0  6  0  0
    0.2133    2.3197    2.6436 C   0  0  0  0  0  0  0  0  0  7  0  0
    0.6693    3.2888    2.8038 H   0  0  0  0  0  0  0  0  0  8  0  0
    0.9877    1.6448    2.2583 H   0  0  0  0  0  0  0  0  0  9  0  0
   -0.5514    2.4367    1.8669 H   0  0  0  0  0  0  0  0  0 10  0  0
    0.2118    4.2028    6.2196 H   0  0  0  0  0  0  0  0  0 54  0  0
    1.3456    3.7829    4.9326 H   0  0  0  0  0  0  0  0  0 55  0  0
   -0.1860    4.5326    4.5235 H   0  0  0  0  0  0  0  0  0 56  0  0
  1  2  1  0
  2  3  4  0
  3  4  1  0
  3  5  4  0
  5  6  1  0
  5  7  4  0
  7  8  1  0
  7  9  4  0
  9 10  1  0
 10 11  1  0
 11 12  2  0
 11 13  1  0
 13 14  1  1
 13 15  1  0
 15 16  1  0
 15 17  1  0
 15 18  1  0
 18 19  1  0
 18 20  1  0
 18 21  1  0
 21 22  1  0
 21 23  1  0
 21 24  1  0
 24 25  1  0
 25 26  2  0
 25 27  1  0
 27 28  1  0
 27 29  1  0
 29 30  1  1
 29 31  1  0
 31 32  1  0
 31 33  1  0
 31 34  1  0
 34 35  1  0
 34 36  1  0
 34 37  1  0
 37 38  1  0
 37 39  1  0
 37 40  1  0
 40 41  1  0
 40 42  1  0
 40 43  1  0
 43 44  1  0
 43 45  1  0
 24 46  1  0
 46 47  1  0
 46 48  1  0
 10 49  1  0
  9 50  4  0
 50 51  1  0
 51 52  1  0
 51 53  1  0
 51 54  1  0
  1 55  1  0
  1 56  1  0
  1 57  1  0
 50  2  4  0
 46 13  1  0
 43 29  1  0
M  END
>  <sample_id>  (451)
train::Cc1cccc(NC(=O)C2CCCN(C(=O)NC3CCCCC3)C2)c1C__gen0000

>  <partition>  (451)
BAT_EXTERNAL_CONFIRM

>  <method>  (451)
BA_seed193

>  <candidate>  (451)
primary

$$$$
train::Cc1cccc(NC(=O)C2CCCN(C(=O)NC3CCCCC3)C2)c1C__gen0001
     RDKit          3D

 57 59  0  0  0  0  0  0  0  0999 V2000
   -2.9433    3.2606    3.8985 C   0  0  0  0  0  0  0  0  0  0  0  0
   -2.3942    2.6730    2.6278 C   0  0  0  0  0  0  0  0  0  1  0  0
   -3.2537    2.4159    1.5660 C   0  0  0  0  0  0  0  0  0  2  0  0
   -4.3048    2.6217    1.6724 H   0  0  0  0  0  0  0  0  0 53  0  0
   -2.7793    1.9006    0.3804 C   0  0  0  0  0  0  0  0  0  3  0  0
   -3.4547    1.7248   -0.4440 H   0  0  0  0  0  0  0  0  0 52  0  0
   -1.4378    1.6135    0.2444 C   0  0  0  0  0  0  0  0  0  4  0  0
   -1.0369    1.2368   -0.6822 H   0  0  0  0  0  0  0  0  0 51  0  0
   -0.5716    1.8468    1.3097 C   0  0  0  0  0  0  0  0  0  5  0  0
    0.8091    1.5172    1.1358 N   0  0  0  0  0  0  0  0  0 11  0  0
    1.4752    0.6912    1.9732 C   0  0  0  0  0  0  0  0  0 12  0  0
    0.9713    0.1740    2.9431 O   0  0  0  0  0  0  0  0  0 13  0  0
    2.9615    0.4654    1.6264 C   0  0  1  0  0  0  0  0  0 14  0  0
    3.4852    1.3127    2.0917 H   0  0  0  0  0  0  0  0  0 49  0  0
    3.4233   -0.8583    2.2326 C   0  0  0  0  0  0  0  0  0 15  0  0
    3.0683   -0.9130    3.2652 H   0  0  0  0  0  0  0  0  0 47  0  0
    4.5049   -0.9121    2.2239 H   0  0  0  0  0  0  0  0  0 48  0  0
    2.8458   -2.0172    1.4356 C   0  0  0  0  0  0  0  0  0 16  0  0
    3.2158   -2.9701    1.8182 H   0  0  0  0  0  0  0  0  0 17  0  0
    1.7484   -2.0126    1.5526 H   0  0  0  0  0  0  0  0  0 18  0  0
    3.2251   -1.8786   -0.0492 C   0  0  0  0  0  0  0  0  0 19  0  0
    2.8285   -2.6976   -0.6463 H   0  0  0  0  0  0  0  0  0 45  0  0
    4.3135   -1.9211   -0.1384 H   0  0  0  0  0  0  0  0  0 46  0  0
    2.7669   -0.6133   -0.5605 N   0  0  0  0  0  0  0  0  0 20  0  0
    1.6593   -0.3653   -1.3033 C   0  0  0  0  0  0  0  0  0 21  0  0
    1.3053    0.7811   -1.5382 O   0  0  0  0  0  0  0  0  0 22  0  0
    0.9805   -1.4358   -1.7932 N   0  0  0  0  0  0  0  0  0 23  0  0
    1.1701   -2.3692   -1.4774 H   0  0  0  0  0  0  0  0  0 24  0  0
   -0.2526   -1.2812   -2.5474 C   0  0  1  0  0  0  0  0  0 25  0  0
   -0.3731   -0.2096   -2.7306 H   0  0  0  0  0  0  0  0  0 41  0  0
   -0.1696   -2.0021   -3.8910 C   0  0  0  0  0  0  0  0  0 26  0  0
    0.0161   -3.0618   -3.6979 H   0  0  0  0  0  0  0  0  0 39  0  0
    0.6715   -1.6082   -4.4648 H   0  0  0  0  0  0  0  0  0 40  0  0
   -1.4783   -1.8306   -4.6726 C   0  0  0  0  0  0  0  0  0 27  0  0
   -1.3854   -2.3606   -5.6234 H   0  0  0  0  0  0  0  0  0 37  0  0
   -1.6196   -0.7786   -4.8830 H   0  0  0  0  0  0  0  0  0 38  0  0
   -2.6504   -2.3559   -3.8715 C   0  0  0  0  0  0  0  0  0 28  0  0
   -2.5201   -3.4310   -3.7008 H   0  0  0  0  0  0  0  0  0 35  0  0
   -3.5804   -2.2078   -4.4170 H   0  0  0  0  0  0  0  0  0 36  0  0
   -2.7480   -1.6363   -2.5153 C   0  0  0  0  0  0  0  0  0 29  0  0
   -2.9163   -0.5719   -2.6877 H   0  0  0  0  0  0  0  0  0 33  0  0
   -3.5782   -2.0324   -1.9428 H   0  0  0  0  0  0  0  0  0 34  0  0
   -1.4475   -1.8138   -1.7409 C   0  0  0  0  0  0  0  0  0 30  0  0
   -1.5041   -1.2643   -0.7952 H   0  0  0  0  0  0  0  0  0 31  0  0
   -1.2762   -2.8641   -1.5185 H   0  0  0  0  0  0  0  0  0 32  0  0
    3.3770    0.4982    0.1510 C   0  0  0  0  0  0  0  0  0 42  0  0
    4.4587    0.4143    0.0740 H   0  0  0  0  0  0  0  0  0 43  0  0
    3.0549    1.4347   -0.3400 H   0  0  0  0  0  0  0  0  0 44  0  0
    1.1085    1.5855    0.1701 H   0  0  0  0  0  0  0  0  0 50  0  0
   -1.0264    2.4113    2.4957 C   0  0  0  0  0  0  0  0  0  6  0  0
   -0.0541    2.7958    3.5850 C   0  0  0  0  0  0  0  0  0  7  0  0
    0.0779    1.9699    4.2626 H   0  0  0  0  0  0  0  0  0  8  0  0
   -0.4175    3.6605    4.1306 H   0  0  0  0  0  0  0  0  0  9  0  0
    0.9140    3.0397    3.1539 H   0  0  0  0  0  0  0  0  0 10  0  0
   -2.6249    4.2855    4.0290 H   0  0  0  0  0  0  0  0  0 54  0  0
   -4.0323    3.2494    3.8638 H   0  0  0  0  0  0  0  0  0 55  0  0
   -2.6050    2.6941    4.7599 H   0  0  0  0  0  0  0  0  0 56  0  0
  1  2  1  0
  2  3  4  0
  3  4  1  0
  3  5  4  0
  5  6  1  0
  5  7  4  0
  7  8  1  0
  7  9  4  0
  9 10  1  0
 10 11  1  0
 11 12  2  0
 11 13  1  0
 13 14  1  1
 13 15  1  0
 15 16  1  0
 15 17  1  0
 15 18  1  0
 18 19  1  0
 18 20  1  0
 18 21  1  0
 21 22  1  0
 21 23  1  0
 21 24  1  0
 24 25  1  0
 25 26  2  0
 25 27  1  0
 27 28  1  0
 27 29  1  0
 29 30  1  6
 29 31  1  0
 31 32  1  0
 31 33  1  0
 31 34  1  0
 34 35  1  0
 34 36  1  0
 34 37  1  0
 37 38  1  0
 37 39  1  0
 37 40  1  0
 40 41  1  0
 40 42  1  0
 40 43  1  0
 43 44  1  0
 43 45  1  0
 24 46  1  0
 46 47  1  0
 46 48  1  0
 10 49  1  0
  9 50  4  0
 50 51  1  0
 51 52  1  0
 51 53  1  0
 51 54  1  0
  1 55  1  0
  1 56  1  0
  1 57  1  0
 50  2  4  0
 46 13  1  0
 43 29  1  0
M  END
>  <sample_id>  (452)
train::Cc1cccc(NC(=O)C2CCCN(C(=O)NC3CCCCC3)C2)c1C__gen0001

>  <partition>  (452)
BAT_EXTERNAL_CONFIRM

>  <method>  (452)
BA_seed193

>  <candidate>  (452)
primary

$$$$
train::Cc1cccc(NC(=O)C2CCCN(C(=O)NC3CCCCC3)C2)c1C__gen0002
     RDKit          3D

 57 59  0  0  0  0  0  0  0  0999 V2000
    2.6432   -0.7987    3.7543 C   0  0  0  0  0  0  0  0  0  0  0  0
    1.9696    0.3412    3.0569 C   0  0  0  0  0  0  0  0  0  1  0  0
    2.6798    1.5215    2.8137 C   0  0  0  0  0  0  0  0  0  2  0  0
    3.7099    1.5726    3.1352 H   0  0  0  0  0  0  0  0  0 53  0  0
    2.0883    2.5829    2.1773 C   0  0  0  0  0  0  0  0  0  3  0  0
    2.6569    3.4872    2.0190 H   0  0  0  0  0  0  0  0  0 52  0  0
    0.7816    2.4913    1.7360 C   0  0  0  0  0  0  0  0  0  4  0  0
    0.3308    3.3260    1.2308 H   0  0  0  0  0  0  0  0  0 51  0  0
    0.0727    1.3163    1.9503 C   0  0  0  0  0  0  0  0  0  5  0  0
   -1.2424    1.1684    1.4212 N   0  0  0  0  0  0  0  0  0 11  0  0
   -2.1160    2.1415    1.1227 C   0  0  0  0  0  0  0  0  0 12  0  0
   -1.9365    3.3148    1.3666 O   0  0  0  0  0  0  0  0  0 13  0  0
   -3.4300    1.6997    0.4552 C   0  0  1  0  0  0  0  0  0 14  0  0
   -4.2110    1.8657    1.2155 H   0  0  0  0  0  0  0  0  0 49  0  0
   -3.6980    2.6459   -0.7138 C   0  0  0  0  0  0  0  0  0 15  0  0
   -3.5620    3.6784   -0.3864 H   0  0  0  0  0  0  0  0  0 47  0  0
   -4.7165    2.5184   -1.0765 H   0  0  0  0  0  0  0  0  0 48  0  0
   -2.7264    2.3318   -1.8474 C   0  0  0  0  0  0  0  0  0 16  0  0
   -1.6941    2.5108   -1.4985 H   0  0  0  0  0  0  0  0  0 17  0  0
   -2.9008    2.9818   -2.7087 H   0  0  0  0  0  0  0  0  0 18  0  0
   -2.8618    0.8739   -2.2679 C   0  0  0  0  0  0  0  0  0 19  0  0
   -3.8730    0.6981   -2.6465 H   0  0  0  0  0  0  0  0  0 45  0  0
   -2.1743    0.6263   -3.0806 H   0  0  0  0  0  0  0  0  0 46  0  0
   -2.6528   -0.0176   -1.1530 N   0  0  0  0  0  0  0  0  0 20  0  0
   -1.5829   -0.8198   -0.9117 C   0  0  0  0  0  0  0  0  0 21  0  0
   -1.4608   -1.4044    0.1532 O   0  0  0  0  0  0  0  0  0 22  0  0
   -0.6432   -0.9372   -1.8882 N   0  0  0  0  0  0  0  0  0 23  0  0
   -0.7640   -0.5294   -2.7890 H   0  0  0  0  0  0  0  0  0 24  0  0
    0.5986   -1.6737   -1.6610 C   0  0  1  0  0  0  0  0  0 25  0  0
    0.3776   -2.4376   -0.9099 H   0  0  0  0  0  0  0  0  0 41  0  0
    1.0664   -2.3570   -2.9487 C   0  0  0  0  0  0  0  0  0 26  0  0
    1.2324   -1.5979   -3.7165 H   0  0  0  0  0  0  0  0  0 39  0  0
    0.2855   -3.0328   -3.3111 H   0  0  0  0  0  0  0  0  0 40  0  0
    2.3639   -3.1269   -2.6793 C   0  0  0  0  0  0  0  0  0 27  0  0
    2.6902   -3.5759   -3.6106 H   0  0  0  0  0  0  0  0  0 37  0  0
    2.1748   -3.9002   -1.9424 H   0  0  0  0  0  0  0  0  0 38  0  0
    3.4275   -2.1865   -2.1401 C   0  0  0  0  0  0  0  0  0 28  0  0
    3.6645   -1.4506   -2.9125 H   0  0  0  0  0  0  0  0  0 35  0  0
    4.3538   -2.7412   -1.9433 H   0  0  0  0  0  0  0  0  0 36  0  0
    2.9587   -1.4750   -0.8726 C   0  0  0  0  0  0  0  0  0 29  0  0
    2.7847   -2.2124   -0.0904 H   0  0  0  0  0  0  0  0  0 33  0  0
    3.7309   -0.7902   -0.5238 H   0  0  0  0  0  0  0  0  0 34  0  0
    1.6765   -0.7173   -1.1483 C   0  0  0  0  0  0  0  0  0 30  0  0
    1.8554    0.0618   -1.8876 H   0  0  0  0  0  0  0  0  0 31  0  0
    1.3176   -0.2280   -0.2285 H   0  0  0  0  0  0  0  0  0 32  0  0
   -3.5536    0.2585   -0.0545 C   0  0  0  0  0  0  0  0  0 42  0  0
   -3.3592   -0.4696    0.7458 H   0  0  0  0  0  0  0  0  0 43  0  0
   -4.5880    0.0978   -0.4023 H   0  0  0  0  0  0  0  0  0 44  0  0
   -1.4517    0.1978    1.2142 H   0  0  0  0  0  0  0  0  0 50  0  0
    0.6460    0.2428    2.6296 C   0  0  0  0  0  0  0  0  0  6  0  0
   -0.1807   -0.9744    2.9264 C   0  0  0  0  0  0  0  0  0  7  0  0
   -0.3373   -1.5621    2.0370 H   0  0  0  0  0  0  0  0  0  8  0  0
    0.2879   -1.5945    3.6951 H   0  0  0  0  0  0  0  0  0  9  0  0
   -1.1752   -0.6836    3.2955 H   0  0  0  0  0  0  0  0  0 10  0  0
    2.2085   -0.9548    4.7396 H   0  0  0  0  0  0  0  0  0 54  0  0
    3.7039   -0.5876    3.8829 H   0  0  0  0  0  0  0  0  0 55  0  0
    2.5542   -1.7168    3.1776 H   0  0  0  0  0  0  0  0  0 56  0  0
  1  2  1  0
  2  3  4  0
  3  4  1  0
  3  5  4  0
  5  6  1  0
  5  7  4  0
  7  8  1  0
  7  9  4  0
  9 10  1  0
 10 11  1  0
 11 12  2  0
 11 13  1  0
 13 14  1  1
 13 15  1  0
 15 16  1  0
 15 17  1  0
 15 18  1  0
 18 19  1  0
 18 20  1  0
 18 21  1  0
 21 22  1  0
 21 23  1  0
 21 24  1  0
 24 25  1  0
 25 26  2  0
 25 27  1  0
 27 28  1  0
 27 29  1  0
 29 30  1  1
 29 31  1  0
 31 32  1  0
 31 33  1  0
 31 34  1  0
 34 35  1  0
 34 36  1  0
 34 37  1  0
 37 38  1  0
 37 39  1  0
 37 40  1  0
 40 41  1  0
 40 42  1  0
 40 43  1  0
 43 44  1  0
 43 45  1  0
 24 46  1  0
 46 47  1  0
 46 48  1  0
 10 49  1  0
  9 50  4  0
 50 51  1  0
 51 52  1  0
 51 53  1  0
 51 54  1  0
  1 55  1  0
  1 56  1  0
  1 57  1  0
 50  2  4  0
 46 13  1  0
 43 29  1  0
M  END
>  <sample_id>  (453)
train::Cc1cccc(NC(=O)C2CCCN(C(=O)NC3CCCCC3)C2)c1C__gen0002

>  <partition>  (453)
BAT_EXTERNAL_CONFIRM

>  <method>  (453)
BA_seed193

>  <candidate>  (453)
primary

$$$$
train::COc1ccccc1NC(=O)C1=C(C)NC2=C(C(=O)CCC2)C1c1ccc2c(c1)OCO2__gen0000
     RDKit          3D

 56 60  0  0  0  0  0  0  0  0999 V2000
    0.9060    4.0545    0.8529 C   0  0  0  0  0  0  0  0  0  0  0  0
    1.4830    4.0039   -0.0634 H   0  0  0  0  0  0  0  0  0  1  0  0
    0.7571    2.7244    1.2841 O   0  0  0  0  0  0  0  0  0  2  0  0
    0.0444    2.4747    2.4342 C   0  0  0  0  0  0  0  0  0  3  0  0
   -0.5570    3.4485    3.2240 C   0  0  0  0  0  0  0  0  0  4  0  0
   -0.4678    4.4936    2.9584 H   0  0  0  0  0  0  0  0  0 53  0  0
   -1.2541    3.0815    4.3571 C   0  0  0  0  0  0  0  0  0  5  0  0
   -1.7137    3.8455    4.9596 H   0  0  0  0  0  0  0  0  0 52  0  0
   -1.3790    1.7473    4.7078 C   0  0  0  0  0  0  0  0  0  6  0  0
   -1.9170    1.4698    5.5943 H   0  0  0  0  0  0  0  0  0 51  0  0
   -0.7939    0.7667    3.9345 C   0  0  0  0  0  0  0  0  0  7  0  0
   -0.8744   -0.2650    4.1816 H   0  0  0  0  0  0  0  0  0 50  0  0
   -0.0845    1.1206    2.7864 C   0  0  0  0  0  0  0  0  0  8  0  0
    0.5060    0.2062    1.9284 N   0  0  0  0  0  0  0  0  0  9  0  0
    0.3156   -1.1568    1.8414 C   0  0  0  0  0  0  0  0  0 10  0  0
   -0.2871   -1.8098    2.6730 O   0  0  0  0  0  0  0  0  0 11  0  0
    0.8220   -1.7087    0.5584 C   0  0  0  0  0  0  0  0  0 12  0  0
    2.1232   -1.9166    0.2851 C   0  0  0  0  0  0  0  0  0 13  0  0
    3.2420   -1.7834    1.2563 C   0  0  0  0  0  0  0  0  0 45  0  0
    3.7998   -2.7250    1.3060 H   0  0  0  0  0  0  0  0  0 46  0  0
    3.9316   -1.0017    0.9342 H   0  0  0  0  0  0  0  0  0 47  0  0
    2.8578   -1.5486    2.2419 H   0  0  0  0  0  0  0  0  0 48  0  0
    2.4849   -2.3043   -1.0016 N   0  0  0  0  0  0  0  0  0 14  0  0
    3.4669   -2.5147   -1.1411 H   0  0  0  0  0  0  0  0  0 44  0  0
    1.5726   -2.6939   -1.9335 C   0  0  0  0  0  0  0  0  0 15  0  0
    0.2367   -2.5593   -1.7040 C   0  0  0  0  0  0  0  0  0 16  0  0
   -0.7600   -2.9604   -2.6927 C   0  0  0  0  0  0  0  0  0 17  0  0
   -1.9496   -2.7852   -2.5193 O   0  0  0  0  0  0  0  0  0 18  0  0
   -0.2266   -3.6145   -3.9505 C   0  0  0  0  0  0  0  0  0 19  0  0
   -0.1644   -4.6876   -3.7524 H   0  0  0  0  0  0  0  0  0 26  0  0
   -0.9572   -3.4702   -4.7520 H   0  0  0  0  0  0  0  0  0 27  0  0
    1.1409   -3.0822   -4.3447 C   0  0  0  0  0  0  0  0  0 20  0  0
    1.0692   -2.0149   -4.5697 H   0  0  0  0  0  0  0  0  0 24  0  0
    1.5085   -3.5864   -5.2332 H   0  0  0  0  0  0  0  0  0 25  0  0
    2.1129   -3.2951   -3.1936 C   0  0  0  0  0  0  0  0  0 21  0  0
    2.2749   -4.3659   -3.0360 H   0  0  0  0  0  0  0  0  0 22  0  0
    3.0935   -2.8488   -3.4236 H   0  0  0  0  0  0  0  0  0 23  0  0
   -0.2874   -1.8755   -0.4612 C   0  0  2  0  0  0  0  0  0 28  0  0
   -0.8530   -0.5051   -0.7255 C   0  0  0  0  0  0  0  0  0 29  0  0
   -0.0832    0.4757   -1.3493 C   0  0  0  0  0  0  0  0  0 30  0  0
    0.8938    0.2049   -1.7363 H   0  0  0  0  0  0  0  0  0 42  0  0
   -0.5198    1.7932   -1.4810 C   0  0  0  0  0  0  0  0  0 31  0  0
    0.0926    2.5317   -1.9799 H   0  0  0  0  0  0  0  0  0 41  0  0
   -1.7397    2.1121   -0.9542 C   0  0  0  0  0  0  0  0  0 32  0  0
   -2.5258    1.1326   -0.3316 C   0  0  0  0  0  0  0  0  0 33  0  0
   -2.1007   -0.1595   -0.2148 C   0  0  0  0  0  0  0  0  0 34  0  0
   -2.7084   -0.9037    0.2780 H   0  0  0  0  0  0  0  0  0 35  0  0
   -3.6839    1.7096    0.1106 O   0  0  0  0  0  0  0  0  0 36  0  0
   -3.5952    3.0717   -0.2622 C   0  0  0  0  0  0  0  0  0 37  0  0
   -4.4261    3.3653   -0.9351 H   0  0  0  0  0  0  0  0  0 39  0  0
   -3.6750    3.6696    0.6676 H   0  0  0  0  0  0  0  0  0 40  0  0
   -2.3830    3.3146   -0.9205 O   0  0  0  0  0  0  0  0  0 38  0  0
   -1.0950   -2.4727   -0.0453 H   0  0  0  0  0  0  0  0  0 43  0  0
    0.9617    0.6330    1.1321 H   0  0  0  0  0  0  0  0  0 49  0  0
   -0.0720    4.5133    0.6320 H   0  0  0  0  0  0  0  0  0 54  0  0
    1.4371    4.6512    1.5887 H   0  0  0  0  0  0  0  0  0 55  0  0
  1  2  1  0
  1  3  1  0
  3  4  1  0
  4  5  4  0
  5  6  1  0
  5  7  4  0
  7  8  1  0
  7  9  4  0
  9 10  1  0
  9 11  4  0
 11 12  1  0
 11 13  4  0
 13 14  1  0
 14 15  1  0
 15 16  2  0
 15 17  1  0
 17 18  2  0
 18 19  1  0
 19 20  1  0
 19 21  1  0
 19 22  1  0
 18 23  1  0
 23 24  1  0
 23 25  1  0
 25 26  2  0
 26 27  1  0
 27 28  2  0
 27 29  1  0
 29 30  1  0
 29 31  1  0
 29 32  1  0
 32 33  1  0
 32 34  1  0
 32 35  1  0
 35 36  1  0
 35 37  1  0
 26 38  1  0
 38 39  1  0
 39 40  4  0
 40 41  1  0
 40 42  4  0
 42 43  1  0
 42 44  4  0
 44 45  4  0
 45 46  4  0
 46 47  1  0
 45 48  1  0
 48 49  1  0
 49 50  1  0
 49 51  1  0
 49 52  1  0
 38 53  1  1
 14 54  1  0
  1 55  1  0
  1 56  1  0
 13  4  4  0
 38 17  1  0
 46 39  4  0
 35 25  1  0
 52 44  1  0
M  END
>  <sample_id>  (454)
train::COc1ccccc1NC(=O)C1=C(C)NC2=C(C(=O)CCC2)C1c1ccc2c(c1)OCO2__gen0000

>  <partition>  (454)
BAT_EXTERNAL_CONFIRM

>  <method>  (454)
BA_seed193

>  <candidate>  (454)
primary

$$$$
train::COc1ccccc1NC(=O)C1=C(C)NC2=C(C(=O)CCC2)C1c1ccc2c(c1)OCO2__gen0001
     RDKit          3D

 56 60  0  0  0  0  0  0  0  0999 V2000
    2.6416    2.6730    2.1760 C   0  0  0  0  0  0  0  0  0  0  0  0
    3.6537    2.9157    1.8529 H   0  0  0  0  0  0  0  0  0  1  0  0
    2.2684    1.3813    1.7828 O   0  0  0  0  0  0  0  0  0  2  0  0
    2.9845    0.3140    2.3066 C   0  0  0  0  0  0  0  0  0  3  0  0
    4.0406    0.4401    3.1969 C   0  0  0  0  0  0  0  0  0  4  0  0
    4.3704    1.4143    3.5252 H   0  0  0  0  0  0  0  0  0 53  0  0
    4.6797   -0.6881    3.6806 C   0  0  0  0  0  0  0  0  0  5  0  0
    5.4982   -0.5778    4.3801 H   0  0  0  0  0  0  0  0  0 52  0  0
    4.2694   -1.9459    3.2695 C   0  0  0  0  0  0  0  0  0  6  0  0
    4.7699   -2.8234    3.6486 H   0  0  0  0  0  0  0  0  0 51  0  0
    3.2237   -2.0856    2.3724 C   0  0  0  0  0  0  0  0  0  7  0  0
    2.8974   -3.0632    2.0622 H   0  0  0  0  0  0  0  0  0 50  0  0
    2.5632   -0.9627    1.8922 C   0  0  0  0  0  0  0  0  0  8  0  0
    1.4826   -1.0221    1.0120 N   0  0  0  0  0  0  0  0  0  9  0  0
    1.0198   -2.0854    0.3224 C   0  0  0  0  0  0  0  0  0 10  0  0
    1.5198   -3.1848    0.3236 O   0  0  0  0  0  0  0  0  0 11  0  0
   -0.1933   -1.7848   -0.4790 C   0  0  0  0  0  0  0  0  0 12  0  0
   -0.5850   -2.5349   -1.5374 C   0  0  0  0  0  0  0  0  0 13  0  0
    0.1710   -3.6772   -2.1386 C   0  0  0  0  0  0  0  0  0 45  0  0
    0.3369   -3.4886   -3.1977 H   0  0  0  0  0  0  0  0  0 46  0  0
   -0.4055   -4.5937   -2.0204 H   0  0  0  0  0  0  0  0  0 47  0  0
    1.1218   -3.7969   -1.6239 H   0  0  0  0  0  0  0  0  0 48  0  0
   -1.7876   -2.2770   -2.1619 N   0  0  0  0  0  0  0  0  0 14  0  0
   -2.0242   -2.8855   -2.9353 H   0  0  0  0  0  0  0  0  0 44  0  0
   -2.7607   -1.5011   -1.6083 C   0  0  0  0  0  0  0  0  0 15  0  0
   -2.4869   -0.7258   -0.5472 C   0  0  0  0  0  0  0  0  0 16  0  0
   -3.4914    0.0411    0.1504 C   0  0  0  0  0  0  0  0  0 17  0  0
   -3.2632    0.6992    1.1459 O   0  0  0  0  0  0  0  0  0 18  0  0
   -4.8790    0.0071   -0.4736 C   0  0  0  0  0  0  0  0  0 19  0  0
   -4.9193    0.8225   -1.2073 H   0  0  0  0  0  0  0  0  0 26  0  0
   -5.6183    0.2298    0.2955 H   0  0  0  0  0  0  0  0  0 27  0  0
   -5.1906   -1.3230   -1.1515 C   0  0  0  0  0  0  0  0  0 20  0  0
   -6.1815   -1.2804   -1.6033 H   0  0  0  0  0  0  0  0  0 24  0  0
   -5.1723   -2.1308   -0.4320 H   0  0  0  0  0  0  0  0  0 25  0  0
   -4.1309   -1.6137   -2.2240 C   0  0  0  0  0  0  0  0  0 21  0  0
   -4.2015   -0.8732   -3.0222 H   0  0  0  0  0  0  0  0  0 22  0  0
   -4.2956   -2.5941   -2.6544 H   0  0  0  0  0  0  0  0  0 23  0  0
   -1.0587   -0.5959   -0.0536 C   0  0  2  0  0  0  0  0  0 28  0  0
   -0.4824    0.7095   -0.6144 C   0  0  0  0  0  0  0  0  0 29  0  0
   -0.2172    0.8361   -1.9657 C   0  0  0  0  0  0  0  0  0 30  0  0
   -0.3828   -0.0150   -2.6092 H   0  0  0  0  0  0  0  0  0 42  0  0
    0.3089    1.9905   -2.5102 C   0  0  0  0  0  0  0  0  0 31  0  0
    0.5306    2.0842   -3.5518 H   0  0  0  0  0  0  0  0  0 41  0  0
    0.5082    3.0487   -1.6605 C   0  0  0  0  0  0  0  0  0 32  0  0
    0.2020    2.9449   -0.3079 C   0  0  0  0  0  0  0  0  0 33  0  0
   -0.2983    1.7953    0.2375 C   0  0  0  0  0  0  0  0  0 34  0  0
   -0.5407    1.7270    1.2896 H   0  0  0  0  0  0  0  0  0 35  0  0
    0.5004    4.1229    0.3267 O   0  0  0  0  0  0  0  0  0 36  0  0
    1.0267    4.9747   -0.6714 C   0  0  0  0  0  0  0  0  0 37  0  0
    0.3958    5.8768   -0.6641 H   0  0  0  0  0  0  0  0  0 39  0  0
    2.0735    5.2636   -0.5091 H   0  0  0  0  0  0  0  0  0 40  0  0
    1.0255    4.2966   -1.9165 O   0  0  0  0  0  0  0  0  0 38  0  0
   -1.0824   -0.5192    1.0351 H   0  0  0  0  0  0  0  0  0 43  0  0
    1.0744   -0.1077    0.8376 H   0  0  0  0  0  0  0  0  0 49  0  0
    1.9356    3.3413    1.6712 H   0  0  0  0  0  0  0  0  0 54  0  0
    2.5554    2.8075    3.2593 H   0  0  0  0  0  0  0  0  0 55  0  0
  1  2  1  0
  1  3  1  0
  3  4  1  0
  4  5  4  0
  5  6  1  0
  5  7  4  0
  7  8  1  0
  7  9  4  0
  9 10  1  0
  9 11  4  0
 11 12  1  0
 11 13  4  0
 13 14  1  0
 14 15  1  0
 15 16  2  0
 15 17  1  0
 17 18  2  0
 18 19  1  0
 19 20  1  0
 19 21  1  0
 19 22  1  0
 18 23  1  0
 23 24  1  0
 23 25  1  0
 25 26  2  0
 26 27  1  0
 27 28  2  0
 27 29  1  0
 29 30  1  0
 29 31  1  0
 29 32  1  0
 32 33  1  0
 32 34  1  0
 32 35  1  0
 35 36  1  0
 35 37  1  0
 26 38  1  0
 38 39  1  0
 39 40  4  0
 40 41  1  0
 40 42  4  0
 42 43  1  0
 42 44  4  0
 44 45  4  0
 45 46  4  0
 46 47  1  0
 45 48  1  0
 48 49  1  0
 49 50  1  0
 49 51  1  0
 49 52  1  0
 38 53  1  1
 14 54  1  0
  1 55  1  0
  1 56  1  0
 13  4  4  0
 38 17  1  0
 46 39  4  0
 35 25  1  0
 52 44  1  0
M  END
>  <sample_id>  (455)
train::COc1ccccc1NC(=O)C1=C(C)NC2=C(C(=O)CCC2)C1c1ccc2c(c1)OCO2__gen0001

>  <partition>  (455)
BAT_EXTERNAL_CONFIRM

>  <method>  (455)
BA_seed193

>  <candidate>  (455)
primary

$$$$
train::COc1ccccc1NC(=O)C1=C(C)NC2=C(C(=O)CCC2)C1c1ccc2c(c1)OCO2__gen0002
     RDKit          3D

 56 60  0  0  0  0  0  0  0  0999 V2000
    4.2261    0.2515    0.9084 C   0  0  0  0  0  0  0  0  0  0  0  0
    3.8109    0.8736    1.7048 H   0  0  0  0  0  0  0  0  0  1  0  0
    3.1974    0.1115   -0.0386 O   0  0  0  0  0  0  0  0  0  2  0  0
    3.4417   -0.6499   -1.1623 C   0  0  0  0  0  0  0  0  0  3  0  0
    4.6499   -1.2623   -1.4462 C   0  0  0  0  0  0  0  0  0  4  0  0
    5.4929   -1.1640   -0.7783 H   0  0  0  0  0  0  0  0  0 53  0  0
    4.7809   -2.0131   -2.6042 C   0  0  0  0  0  0  0  0  0  5  0  0
    5.7311   -2.4863   -2.8250 H   0  0  0  0  0  0  0  0  0 52  0  0
    3.7219   -2.1474   -3.4734 C   0  0  0  0  0  0  0  0  0  6  0  0
    3.8302   -2.7348   -4.3761 H   0  0  0  0  0  0  0  0  0 51  0  0
    2.5152   -1.5390   -3.2037 C   0  0  0  0  0  0  0  0  0  7  0  0
    1.6711   -1.6537   -3.8683 H   0  0  0  0  0  0  0  0  0 50  0  0
    2.3592   -0.7981   -2.0404 C   0  0  0  0  0  0  0  0  0  8  0  0
    1.1764   -0.1438   -1.6830 N   0  0  0  0  0  0  0  0  0  9  0  0
   -0.0835   -0.3095   -2.1868 C   0  0  0  0  0  0  0  0  0 10  0  0
   -0.3684   -1.0846   -3.0859 O   0  0  0  0  0  0  0  0  0 11  0  0
   -1.0877    0.4928   -1.4427 C   0  0  0  0  0  0  0  0  0 12  0  0
   -1.1832    1.8252   -1.5422 C   0  0  0  0  0  0  0  0  0 13  0  0
   -0.3311    2.6964   -2.3898 C   0  0  0  0  0  0  0  0  0 45  0  0
   -0.9372    3.3628   -3.0074 H   0  0  0  0  0  0  0  0  0 46  0  0
    0.3270    3.3083   -1.7688 H   0  0  0  0  0  0  0  0  0 47  0  0
    0.2923    2.0781   -3.0374 H   0  0  0  0  0  0  0  0  0 48  0  0
   -2.1804    2.4835   -0.8397 N   0  0  0  0  0  0  0  0  0 14  0  0
   -2.2161    3.4961   -0.9081 H   0  0  0  0  0  0  0  0  0 44  0  0
   -3.0684    1.8561   -0.0229 C   0  0  0  0  0  0  0  0  0 15  0  0
   -3.0521    0.4975    0.1160 C   0  0  0  0  0  0  0  0  0 16  0  0
   -4.0190   -0.2255    0.9357 C   0  0  0  0  0  0  0  0  0 17  0  0
   -3.9995   -1.4274    1.0588 O   0  0  0  0  0  0  0  0  0 18  0  0
   -5.1053    0.6488    1.5692 C   0  0  0  0  0  0  0  0  0 19  0  0
   -5.9241    0.6904    0.8459 H   0  0  0  0  0  0  0  0  0 26  0  0
   -5.4849    0.1293    2.4621 H   0  0  0  0  0  0  0  0  0 27  0  0
   -4.6056    2.0419    1.9039 C   0  0  0  0  0  0  0  0  0 20  0  0
   -3.7917    1.9809    2.6299 H   0  0  0  0  0  0  0  0  0 24  0  0
   -5.4116    2.6370    2.3338 H   0  0  0  0  0  0  0  0  0 25  0  0
   -4.1017    2.7176    0.6313 C   0  0  0  0  0  0  0  0  0 21  0  0
   -3.6614    3.6917    0.8672 H   0  0  0  0  0  0  0  0  0 22  0  0
   -4.9246    2.8712   -0.0528 H   0  0  0  0  0  0  0  0  0 23  0  0
   -1.9495   -0.3379   -0.5048 C   0  0  2  0  0  0  0  0  0 28  0  0
   -1.0266   -0.9212    0.5396 C   0  0  0  0  0  0  0  0  0 29  0  0
   -0.7888   -2.2899    0.5840 C   0  0  0  0  0  0  0  0  0 30  0  0
   -1.3158   -2.9203   -0.1195 H   0  0  0  0  0  0  0  0  0 42  0  0
    0.0996   -2.8544    1.4809 C   0  0  0  0  0  0  0  0  0 31  0  0
    0.2704   -3.9198    1.4976 H   0  0  0  0  0  0  0  0  0 41  0  0
    0.7708   -2.0143    2.3243 C   0  0  0  0  0  0  0  0  0 32  0  0
    0.5541   -0.6420    2.2922 C   0  0  0  0  0  0  0  0  0 33  0  0
   -0.3467   -0.0769    1.4167 C   0  0  0  0  0  0  0  0  0 34  0  0
   -0.5067    0.9971    1.3909 H   0  0  0  0  0  0  0  0  0 35  0  0
    1.3515   -0.0241    3.2162 O   0  0  0  0  0  0  0  0  0 36  0  0
    2.0770   -1.0664    3.8530 C   0  0  0  0  0  0  0  0  0 37  0  0
    1.7979   -1.1022    4.9375 H   0  0  0  0  0  0  0  0  0 39  0  0
    3.1451   -0.9179    3.7448 H   0  0  0  0  0  0  0  0  0 40  0  0
    1.7072   -2.3028    3.2781 O   0  0  0  0  0  0  0  0  0 38  0  0
   -2.4078   -1.1559   -1.0671 H   0  0  0  0  0  0  0  0  0 43  0  0
    1.2698    0.3859   -0.8356 H   0  0  0  0  0  0  0  0  0 49  0  0
    4.5330   -0.7122    1.3135 H   0  0  0  0  0  0  0  0  0 54  0  0
    5.0787    0.7724    0.4744 H   0  0  0  0  0  0  0  0  0 55  0  0
  1  2  1  0
  1  3  1  0
  3  4  1  0
  4  5  4  0
  5  6  1  0
  5  7  4  0
  7  8  1  0
  7  9  4  0
  9 10  1  0
  9 11  4  0
 11 12  1  0
 11 13  4  0
 13 14  1  0
 14 15  1  0
 15 16  2  0
 15 17  1  0
 17 18  2  0
 18 19  1  0
 19 20  1  0
 19 21  1  0
 19 22  1  0
 18 23  1  0
 23 24  1  0
 23 25  1  0
 25 26  2  0
 26 27  1  0
 27 28  2  0
 27 29  1  0
 29 30  1  0
 29 31  1  0
 29 32  1  0
 32 33  1  0
 32 34  1  0
 32 35  1  0
 35 36  1  0
 35 37  1  0
 26 38  1  0
 38 39  1  0
 39 40  4  0
 40 41  1  0
 40 42  4  0
 42 43  1  0
 42 44  4  0
 44 45  4  0
 45 46  4  0
 46 47  1  0
 45 48  1  0
 48 49  1  0
 49 50  1  0
 49 51  1  0
 49 52  1  0
 38 53  1  6
 14 54  1  0
  1 55  1  0
  1 56  1  0
 13  4  4  0
 38 17  1  0
 46 39  4  0
 35 25  1  0
 52 44  1  0
M  END
>  <sample_id>  (456)
train::COc1ccccc1NC(=O)C1=C(C)NC2=C(C(=O)CCC2)C1c1ccc2c(c1)OCO2__gen0002

>  <partition>  (456)
BAT_EXTERNAL_CONFIRM

>  <method>  (456)
BA_seed193

>  <candidate>  (456)
primary

$$$$
train::CCc1ccc(CNC(=O)C2CCN(S(=O)(=O)N3CCCC3)CC2)cc1__gen0000
     RDKit          3D

 55 57  0  0  0  0  0  0  0  0999 V2000
   -3.7402   -0.0327   -5.9946 C   0  0  0  0  0  0  0  0  0  0  0  0
   -4.5674   -0.5511   -6.4760 H   0  0  0  0  0  0  0  0  0  1  0  0
   -2.8095   -0.5131   -6.2865 H   0  0  0  0  0  0  0  0  0  2  0  0
   -3.7159    0.9939   -6.3376 H   0  0  0  0  0  0  0  0  0  3  0  0
   -3.8895   -0.0735   -4.4636 C   0  0  0  0  0  0  0  0  0  4  0  0
   -2.7397    0.6127   -3.7902 C   0  0  0  0  0  0  0  0  0  5  0  0
   -2.8005    1.9726   -3.4976 C   0  0  0  0  0  0  0  0  0  6  0  0
   -3.6989    2.5238   -3.7109 H   0  0  0  0  0  0  0  0  0 52  0  0
   -1.7300    2.6184   -2.9146 C   0  0  0  0  0  0  0  0  0  7  0  0
   -1.8014    3.6669   -2.6814 H   0  0  0  0  0  0  0  0  0 51  0  0
   -0.5581    1.9280   -2.6270 C   0  0  0  0  0  0  0  0  0  8  0  0
    0.6222    2.6301   -1.9884 C   0  0  0  0  0  0  0  0  0 13  0  0
    1.3016    1.7893   -1.0359 N   0  0  0  0  0  0  0  0  0 14  0  0
    2.5690    1.3808   -1.1807 C   0  0  0  0  0  0  0  0  0 15  0  0
    3.2723    1.7556   -2.1067 O   0  0  0  0  0  0  0  0  0 16  0  0
    3.0454    0.3604   -0.1596 C   0  0  1  0  0  0  0  0  0 17  0  0
    4.0993    0.1791   -0.3405 H   0  0  0  0  0  0  0  0  0 47  0  0
    2.8616    0.9119    1.2675 C   0  0  0  0  0  0  0  0  0 18  0  0
    3.6435    1.6576    1.4600 H   0  0  0  0  0  0  0  0  0 45  0  0
    1.8962    1.4061    1.3641 H   0  0  0  0  0  0  0  0  0 46  0  0
    2.9638   -0.1838    2.3279 C   0  0  0  0  0  0  0  0  0 19  0  0
    2.6532    0.2073    3.3007 H   0  0  0  0  0  0  0  0  0 43  0  0
    3.9907   -0.5601    2.4194 H   0  0  0  0  0  0  0  0  0 44  0  0
    2.1035   -1.3160    2.0399 N   0  0  0  0  0  0  0  0  0 20  0  0
    0.4618   -1.0181    2.1808 S   0  0  2  0  0  6  0  0  0 21  0  0
   -0.2176   -2.2230    1.8242 O   0  0  0  0  0  0  0  0  0 22  0  0
    0.0382    0.1737    1.5075 O   0  0  0  0  0  0  0  0  0 23  0  0
    0.4364   -0.6881    3.8171 N   0  0  0  0  0  0  0  0  0 24  0  0
    0.6190   -1.8993    4.6142 C   0  0  0  0  0  0  0  0  0 25  0  0
    1.4778   -1.7399    5.2752 H   0  0  0  0  0  0  0  0  0 26  0  0
    0.8507   -2.7211    3.9420 H   0  0  0  0  0  0  0  0  0 27  0  0
   -0.6854   -2.1219    5.3921 C   0  0  0  0  0  0  0  0  0 28  0  0
   -1.0017   -3.1599    5.3642 H   0  0  0  0  0  0  0  0  0 29  0  0
   -0.5437   -1.8219    6.4469 H   0  0  0  0  0  0  0  0  0 30  0  0
   -1.6829   -1.1830    4.7233 C   0  0  0  0  0  0  0  0  0 31  0  0
   -2.1237   -1.6636    3.8503 H   0  0  0  0  0  0  0  0  0 32  0  0
   -2.4666   -0.8477    5.4048 H   0  0  0  0  0  0  0  0  0 33  0  0
   -0.7834   -0.0362    4.2732 C   0  0  0  0  0  0  0  0  0 34  0  0
   -1.1861    0.5525    3.4517 H   0  0  0  0  0  0  0  0  0 35  0  0
   -0.5103    0.6212    5.0970 H   0  0  0  0  0  0  0  0  0 36  0  0
    2.4719   -1.9221    0.7719 C   0  0  0  0  0  0  0  0  0 37  0  0
    3.5092   -2.2636    0.8328 H   0  0  0  0  0  0  0  0  0 41  0  0
    1.8214   -2.8009    0.6370 H   0  0  0  0  0  0  0  0  0 42  0  0
    2.2625   -0.9497   -0.3975 C   0  0  0  0  0  0  0  0  0 38  0  0
    1.1969   -0.7475   -0.4471 H   0  0  0  0  0  0  0  0  0 39  0  0
    2.5829   -1.4021   -1.3270 H   0  0  0  0  0  0  0  0  0 40  0  0
    0.7347    1.3865   -0.2951 H   0  0  0  0  0  0  0  0  0 48  0  0
    1.3729    2.8783   -2.7440 H   0  0  0  0  0  0  0  0  0 49  0  0
    0.2819    3.5499   -1.5140 H   0  0  0  0  0  0  0  0  0 50  0  0
   -0.4872    0.5719   -2.9383 C   0  0  0  0  0  0  0  0  0  9  0  0
    0.4258    0.0114   -2.7396 H   0  0  0  0  0  0  0  0  0 12  0  0
   -1.5633   -0.0692   -3.5212 C   0  0  0  0  0  0  0  0  0 10  0  0
   -1.4994   -1.1228   -3.7427 H   0  0  0  0  0  0  0  0  0 11  0  0
   -3.9303   -1.1160   -4.1321 H   0  0  0  0  0  0  0  0  0 53  0  0
   -4.8338    0.4080   -4.1953 H   0  0  0  0  0  0  0  0  0 54  0  0
  1  2  1  0
  1  3  1  0
  1  4  1  0
  1  5  1  0
  5  6  1  0
  6  7  4  0
  7  8  1  0
  7  9  4  0
  9 10  1  0
  9 11  4  0
 11 12  1  0
 12 13  1  0
 13 14  1  0
 14 15  2  0
 14 16  1  0
 16 17  1  6
 16 18  1  0
 18 19  1  0
 18 20  1  0
 18 21  1  0
 21 22  1  0
 21 23  1  0
 21 24  1  0
 25 24  1  6
 25 26  2  0
 25 27  2  0
 25 28  1  0
 28 29  1  0
 29 30  1  0
 29 31  1  0
 29 32  1  0
 32 33  1  0
 32 34  1  0
 32 35  1  0
 35 36  1  0
 35 37  1  0
 35 38  1  0
 38 39  1  0
 38 40  1  0
 24 41  1  0
 41 42  1  0
 41 43  1  0
 41 44  1  0
 44 45  1  0
 44 46  1  0
 13 47  1  0
 12 48  1  0
 12 49  1  0
 11 50  4  0
 50 51  1  0
 50 52  4  0
 52 53  1  0
  5 54  1  0
  5 55  1  0
 52  6  4  0
 44 16  1  0
 38 28  1  0
M  END
>  <sample_id>  (457)
train::CCc1ccc(CNC(=O)C2CCN(S(=O)(=O)N3CCCC3)CC2)cc1__gen0000

>  <partition>  (457)
BAT_EXTERNAL_CONFIRM

>  <method>  (457)
BA_seed193

>  <candidate>  (457)
primary

$$$$
train::CCc1ccc(CNC(=O)C2CCN(S(=O)(=O)N3CCCC3)CC2)cc1__gen0001
     RDKit          3D

 55 57  0  0  0  0  0  0  0  0999 V2000
    3.8744    4.5903    2.4566 C   0  0  0  0  0  0  0  0  0  0  0  0
    4.3867    4.8525    3.3706 H   0  0  0  0  0  0  0  0  0  1  0  0
    4.4968    3.9061    1.8814 H   0  0  0  0  0  0  0  0  0  2  0  0
    3.7478    5.4926    1.8582 H   0  0  0  0  0  0  0  0  0  3  0  0
    2.5110    3.9639    2.7553 C   0  0  0  0  0  0  0  0  0  4  0  0
    1.8123    3.6103    1.4711 C   0  0  0  0  0  0  0  0  0  5  0  0
    0.9759    4.5169    0.8332 C   0  0  0  0  0  0  0  0  0  6  0  0
    0.8044    5.4823    1.2887 H   0  0  0  0  0  0  0  0  0 52  0  0
    0.3569    4.1982   -0.3598 C   0  0  0  0  0  0  0  0  0  7  0  0
   -0.2943    4.9248   -0.8218 H   0  0  0  0  0  0  0  0  0 51  0  0
    0.5772    2.9722   -0.9578 C   0  0  0  0  0  0  0  0  0  8  0  0
   -0.1488    2.5865   -2.2315 C   0  0  0  0  0  0  0  0  0 13  0  0
   -0.9786    1.4272   -1.9960 N   0  0  0  0  0  0  0  0  0 14  0  0
   -2.3162    1.4603   -1.9257 C   0  0  0  0  0  0  0  0  0 15  0  0
   -2.9710    2.4436   -2.2259 O   0  0  0  0  0  0  0  0  0 16  0  0
   -2.9314    0.1929   -1.3463 C   0  0  1  0  0  0  0  0  0 17  0  0
   -4.0224    0.3039   -1.4067 H   0  0  0  0  0  0  0  0  0 47  0  0
   -2.5228   -1.0365   -2.1756 C   0  0  0  0  0  0  0  0  0 18  0  0
   -1.4960   -0.9302   -2.5232 H   0  0  0  0  0  0  0  0  0 45  0  0
   -3.1557   -1.0942   -3.0694 H   0  0  0  0  0  0  0  0  0 46  0  0
   -2.6377   -2.3484   -1.3967 C   0  0  0  0  0  0  0  0  0 19  0  0
   -2.0818   -3.1391   -1.9126 H   0  0  0  0  0  0  0  0  0 43  0  0
   -3.6859   -2.6527   -1.3002 H   0  0  0  0  0  0  0  0  0 44  0  0
   -2.0734   -2.2475   -0.0762 N   0  0  0  0  0  0  0  0  0 20  0  0
   -0.4337   -2.1355   -0.0116 S   0  0  2  0  0  6  0  0  0 21  0  0
   -0.0474   -1.8670    1.3412 O   0  0  0  0  0  0  0  0  0 22  0  0
    0.1515   -1.2704   -1.0051 O   0  0  0  0  0  0  0  0  0 23  0  0
   -0.0810   -3.7131   -0.4776 N   0  0  0  0  0  0  0  0  0 24  0  0
   -0.3194   -4.6505    0.6060 C   0  0  0  0  0  0  0  0  0 25  0  0
   -0.6115   -5.5978    0.1474 H   0  0  0  0  0  0  0  0  0 26  0  0
   -1.1379   -4.2742    1.2194 H   0  0  0  0  0  0  0  0  0 27  0  0
    1.0067   -4.7538    1.3753 C   0  0  0  0  0  0  0  0  0 28  0  0
    0.9546   -4.2044    2.3137 H   0  0  0  0  0  0  0  0  0 29  0  0
    1.2485   -5.7996    1.5873 H   0  0  0  0  0  0  0  0  0 30  0  0
    2.0451   -4.1098    0.4522 C   0  0  0  0  0  0  0  0  0 31  0  0
    2.3344   -3.1384    0.8270 H   0  0  0  0  0  0  0  0  0 32  0  0
    2.9479   -4.7168    0.3529 H   0  0  0  0  0  0  0  0  0 33  0  0
    1.2967   -3.9193   -0.8688 C   0  0  0  0  0  0  0  0  0 34  0  0
    1.6434   -3.0617   -1.4458 H   0  0  0  0  0  0  0  0  0 35  0  0
    1.3371   -4.8144   -1.4858 H   0  0  0  0  0  0  0  0  0 36  0  0
   -2.7536   -1.2531    0.7326 C   0  0  0  0  0  0  0  0  0 37  0  0
   -2.3329   -1.2828    1.7387 H   0  0  0  0  0  0  0  0  0 41  0  0
   -3.8202   -1.5232    0.7779 H   0  0  0  0  0  0  0  0  0 42  0  0
   -2.5358    0.1377    0.1454 C   0  0  0  0  0  0  0  0  0 38  0  0
   -3.1067    0.8863    0.6985 H   0  0  0  0  0  0  0  0  0 39  0  0
   -1.4797    0.3653    0.2402 H   0  0  0  0  0  0  0  0  0 40  0  0
   -0.4837    0.6032   -1.6706 H   0  0  0  0  0  0  0  0  0 48  0  0
    0.5683    2.3634   -3.0238 H   0  0  0  0  0  0  0  0  0 49  0  0
   -0.8104    3.3908   -2.5543 H   0  0  0  0  0  0  0  0  0 50  0  0
    1.4045    2.0605   -0.3307 C   0  0  0  0  0  0  0  0  0  9  0  0
    1.5553    1.0826   -0.7632 H   0  0  0  0  0  0  0  0  0 12  0  0
    2.0093    2.3643    0.8758 C   0  0  0  0  0  0  0  0  0 10  0  0
    2.6544    1.6312    1.3446 H   0  0  0  0  0  0  0  0  0 11  0  0
    1.9028    4.6598    3.3215 H   0  0  0  0  0  0  0  0  0 53  0  0
    2.6658    3.0644    3.3501 H   0  0  0  0  0  0  0  0  0 54  0  0
  1  2  1  0
  1  3  1  0
  1  4  1  0
  1  5  1  0
  5  6  1  0
  6  7  4  0
  7  8  1  0
  7  9  4  0
  9 10  1  0
  9 11  4  0
 11 12  1  0
 12 13  1  0
 13 14  1  0
 14 15  2  0
 14 16  1  0
 16 17  1  1
 16 18  1  0
 18 19  1  0
 18 20  1  0
 18 21  1  0
 21 22  1  0
 21 23  1  0
 21 24  1  0
 25 24  1  1
 25 26  2  0
 25 27  2  0
 25 28  1  0
 28 29  1  0
 29 30  1  0
 29 31  1  0
 29 32  1  0
 32 33  1  0
 32 34  1  0
 32 35  1  0
 35 36  1  0
 35 37  1  0
 35 38  1  0
 38 39  1  0
 38 40  1  0
 24 41  1  0
 41 42  1  0
 41 43  1  0
 41 44  1  0
 44 45  1  0
 44 46  1  0
 13 47  1  0
 12 48  1  0
 12 49  1  0
 11 50  4  0
 50 51  1  0
 50 52  4  0
 52 53  1  0
  5 54  1  0
  5 55  1  0
 52  6  4  0
 44 16  1  0
 38 28  1  0
M  END
>  <sample_id>  (458)
train::CCc1ccc(CNC(=O)C2CCN(S(=O)(=O)N3CCCC3)CC2)cc1__gen0001

>  <partition>  (458)
BAT_EXTERNAL_CONFIRM

>  <method>  (458)
BA_seed193

>  <candidate>  (458)
primary

$$$$
train::CCc1ccc(CNC(=O)C2CCN(S(=O)(=O)N3CCCC3)CC2)cc1__gen0002
     RDKit          3D

 55 57  0  0  0  0  0  0  0  0999 V2000
    0.9098    1.2448    6.4899 C   0  0  0  0  0  0  0  0  0  0  0  0
    0.3850    2.1684    6.7249 H   0  0  0  0  0  0  0  0  0  1  0  0
    1.6080    1.0363    7.3023 H   0  0  0  0  0  0  0  0  0  2  0  0
    0.1945    0.4286    6.4140 H   0  0  0  0  0  0  0  0  0  3  0  0
    1.6735    1.3916    5.1792 C   0  0  0  0  0  0  0  0  0  4  0  0
    0.7219    1.6917    4.0504 C   0  0  0  0  0  0  0  0  0  5  0  0
    0.3615    3.0012    3.7712 C   0  0  0  0  0  0  0  0  0  6  0  0
    0.8055    3.8121    4.3342 H   0  0  0  0  0  0  0  0  0 52  0  0
   -0.5417    3.2840    2.7584 C   0  0  0  0  0  0  0  0  0  7  0  0
   -0.8088    4.3175    2.5453 H   0  0  0  0  0  0  0  0  0 51  0  0
   -1.1304    2.2607    2.0185 C   0  0  0  0  0  0  0  0  0  8  0  0
   -2.0910    2.5564    0.9126 C   0  0  0  0  0  0  0  0  0 13  0  0
   -1.6354    1.9985   -0.3428 N   0  0  0  0  0  0  0  0  0 14  0  0
   -1.2473    2.7650   -1.3855 C   0  0  0  0  0  0  0  0  0 15  0  0
   -1.3787    3.9667   -1.4267 O   0  0  0  0  0  0  0  0  0 16  0  0
   -0.6253    1.9629   -2.5295 C   0  0  1  0  0  0  0  0  0 17  0  0
   -0.3384    2.6652   -3.3124 H   0  0  0  0  0  0  0  0  0 47  0  0
    0.6589    1.2679   -2.0221 C   0  0  0  0  0  0  0  0  0 18  0  0
    0.4822    0.8339   -1.0525 H   0  0  0  0  0  0  0  0  0 45  0  0
    1.4500    2.0239   -1.9298 H   0  0  0  0  0  0  0  0  0 46  0  0
    1.1155    0.1868   -2.9736 C   0  0  0  0  0  0  0  0  0 19  0  0
    1.4891    0.6035   -3.9111 H   0  0  0  0  0  0  0  0  0 43  0  0
    1.9080   -0.4104   -2.5108 H   0  0  0  0  0  0  0  0  0 44  0  0
    0.0508   -0.7324   -3.3259 N   0  0  0  0  0  0  0  0  0 20  0  0
   -0.4702   -1.7081   -2.0355 S   0  0  1  0  0  6  0  0  0 21  0  0
   -0.7636   -0.9917   -0.8229 O   0  0  0  0  0  0  0  0  0 22  0  0
   -1.5297   -2.5130   -2.5529 O   0  0  0  0  0  0  0  0  0 23  0  0
    0.9520   -2.5321   -1.7803 N   0  0  0  0  0  0  0  0  0 24  0  0
    1.0008   -3.2494   -0.5106 C   0  0  0  0  0  0  0  0  0 25  0  0
    1.9851   -3.0585   -0.0611 H   0  0  0  0  0  0  0  0  0 26  0  0
    0.2452   -2.8391    0.1534 H   0  0  0  0  0  0  0  0  0 27  0  0
    0.7868   -4.7434   -0.8041 C   0  0  0  0  0  0  0  0  0 28  0  0
   -0.0328   -5.1771   -0.2579 H   0  0  0  0  0  0  0  0  0 29  0  0
    1.7035   -5.2910   -0.5324 H   0  0  0  0  0  0  0  0  0 30  0  0
    0.5510   -4.8005   -2.3134 C   0  0  0  0  0  0  0  0  0 31  0  0
   -0.5141   -4.7443   -2.5358 H   0  0  0  0  0  0  0  0  0 32  0  0
    0.9752   -5.6899   -2.7765 H   0  0  0  0  0  0  0  0  0 33  0  0
    1.2113   -3.5203   -2.8145 C   0  0  0  0  0  0  0  0  0 34  0  0
    2.2930   -3.6266   -2.9189 H   0  0  0  0  0  0  0  0  0 35  0  0
    0.7924   -3.1494   -3.7566 H   0  0  0  0  0  0  0  0  0 36  0  0
   -1.0495   -0.0659   -3.9808 C   0  0  0  0  0  0  0  0  0 37  0  0
   -0.6461    0.3865   -4.8974 H   0  0  0  0  0  0  0  0  0 41  0  0
   -1.7730   -0.8312   -4.2491 H   0  0  0  0  0  0  0  0  0 42  0  0
   -1.6829    0.9895   -3.0812 C   0  0  0  0  0  0  0  0  0 38  0  0
   -2.1684    0.4535   -2.2646 H   0  0  0  0  0  0  0  0  0 39  0  0
   -2.4407    1.5387   -3.6267 H   0  0  0  0  0  0  0  0  0 40  0  0
   -1.4196    1.0167   -0.3301 H   0  0  0  0  0  0  0  0  0 48  0  0
   -2.2188    3.6329    0.7638 H   0  0  0  0  0  0  0  0  0 49  0  0
   -3.0769    2.1212    1.1484 H   0  0  0  0  0  0  0  0  0 50  0  0
   -0.7604    0.9480    2.3004 C   0  0  0  0  0  0  0  0  0  9  0  0
   -1.1813    0.1425    1.7362 H   0  0  0  0  0  0  0  0  0 12  0  0
    0.1605    0.6739    3.2898 C   0  0  0  0  0  0  0  0  0 10  0  0
    0.4271   -0.3548    3.5110 H   0  0  0  0  0  0  0  0  0 11  0  0
    2.4065    2.1938    5.2639 H   0  0  0  0  0  0  0  0  0 53  0  0
    2.2203    0.4640    4.9583 H   0  0  0  0  0  0  0  0  0 54  0  0
  1  2  1  0
  1  3  1  0
  1  4  1  0
  1  5  1  0
  5  6  1  0
  6  7  4  0
  7  8  1  0
  7  9  4  0
  9 10  1  0
  9 11  4  0
 11 12  1  0
 12 13  1  0
 13 14  1  0
 14 15  2  0
 14 16  1  0
 16 17  1  6
 16 18  1  0
 18 19  1  0
 18 20  1  0
 18 21  1  0
 21 22  1  0
 21 23  1  0
 21 24  1  0
 25 24  1  1
 25 26  2  0
 25 27  2  0
 25 28  1  0
 28 29  1  0
 29 30  1  0
 29 31  1  0
 29 32  1  0
 32 33  1  0
 32 34  1  0
 32 35  1  0
 35 36  1  0
 35 37  1  0
 35 38  1  0
 38 39  1  0
 38 40  1  0
 24 41  1  0
 41 42  1  0
 41 43  1  0
 41 44  1  0
 44 45  1  0
 44 46  1  0
 13 47  1  0
 12 48  1  0
 12 49  1  0
 11 50  4  0
 50 51  1  0
 50 52  4  0
 52 53  1  0
  5 54  1  0
  5 55  1  0
 52  6  4  0
 44 16  1  0
 38 28  1  0
M  END
>  <sample_id>  (459)
train::CCc1ccc(CNC(=O)C2CCN(S(=O)(=O)N3CCCC3)CC2)cc1__gen0002

>  <partition>  (459)
BAT_EXTERNAL_CONFIRM

>  <method>  (459)
BA_seed193

>  <candidate>  (459)
primary

$$$$
train::COc1cc2c(cc1NC(=O)_C=C_c1ccc([N+](=O)[O-])cc1)oc1ccccc12__gen0000
     RDKit          3D

 45 48  0  0  0  0  0  0  0  0999 V2000
    1.6277    3.3564   -1.9131 C   0  0  0  0  0  0  0  0  0  0  0  0
    2.6642    3.5249   -1.5944 H   0  0  0  0  0  0  0  0  0  1  0  0
    1.0778    2.2160   -1.2853 O   0  0  0  0  0  0  0  0  0  2  0  0
    0.9871    2.2078    0.0864 C   0  0  0  0  0  0  0  0  0  3  0  0
    1.4036    3.2453    0.8946 C   0  0  0  0  0  0  0  0  0  4  0  0
    1.8434    4.1534    0.5025 H   0  0  0  0  0  0  0  0  0 42  0  0
    1.2590    3.1020    2.2703 C   0  0  0  0  0  0  0  0  0  5  0  0
    0.7123    1.9224    2.8124 C   0  0  0  0  0  0  0  0  0  6  0  0
    0.2799    0.8847    2.0111 C   0  0  0  0  0  0  0  0  0  7  0  0
   -0.1388   -0.0134    2.4413 H   0  0  0  0  0  0  0  0  0 30  0  0
    0.4301    1.0317    0.6372 C   0  0  0  0  0  0  0  0  0  8  0  0
    0.0385    0.0404   -0.2690 N   0  0  0  0  0  0  0  0  0  9  0  0
   -0.5189   -1.1721   -0.0303 C   0  0  0  0  0  0  0  0  0 10  0  0
   -0.7666   -1.6184    1.0778 O   0  0  0  0  0  0  0  0  0 11  0  0
   -0.7890   -1.9241   -1.2875 C   0  0  0  0  0  0  0  0  0 12  0  0
   -1.3275   -3.1446   -1.2087 C   0  0  0  0  0  0  0  0  0 13  0  0
   -1.6719   -4.0226   -2.3106 C   0  0  0  0  0  0  0  0  0 14  0  0
   -1.4818   -3.6725   -3.6547 C   0  0  0  0  0  0  0  0  0 15  0  0
   -1.0753   -2.7047   -3.9045 H   0  0  0  0  0  0  0  0  0 26  0  0
   -1.8248   -4.5417   -4.6702 C   0  0  0  0  0  0  0  0  0 16  0  0
   -1.6893   -4.2745   -5.7069 H   0  0  0  0  0  0  0  0  0 25  0  0
   -2.3538   -5.7888   -4.3477 C   0  0  0  0  0  0  0  0  0 17  0  0
   -2.7177   -6.6885   -5.4088 N   0  0  0  0  0  0  0  0  0 22  0  0
   -2.5318   -6.3238   -6.5489 O   0  0  0  0  0  0  0  0  0 23  0  0
   -3.1695   -7.7721   -5.1041 O   0  0  0  0  0  0  0  0  0 24  0  0
   -2.5498   -6.1586   -3.0243 C   0  0  0  0  0  0  0  0  0 18  0  0
   -2.9604   -7.1382   -2.8174 H   0  0  0  0  0  0  0  0  0 21  0  0
   -2.2047   -5.2848   -2.0162 C   0  0  0  0  0  0  0  0  0 19  0  0
   -2.3495   -5.5714   -0.9874 H   0  0  0  0  0  0  0  0  0 20  0  0
   -1.5274   -3.5293   -0.2204 H   0  0  0  0  0  0  0  0  0 27  0  0
   -0.5409   -1.4359   -2.2189 H   0  0  0  0  0  0  0  0  0 28  0  0
    0.2120    0.3163   -1.2303 H   0  0  0  0  0  0  0  0  0 29  0  0
    0.6506    1.9785    4.1689 O   0  0  0  0  0  0  0  0  0 31  0  0
    1.1668    3.1827    4.5285 C   0  0  0  0  0  0  0  0  0 32  0  0
    1.3078    3.6701    5.8224 C   0  0  0  0  0  0  0  0  0 33  0  0
    1.0017    3.0660    6.6632 H   0  0  0  0  0  0  0  0  0 41  0  0
    1.8557    4.9263    5.9658 C   0  0  0  0  0  0  0  0  0 34  0  0
    1.9949    5.3286    6.9590 H   0  0  0  0  0  0  0  0  0 40  0  0
    2.2575    5.6791    4.8660 C   0  0  0  0  0  0  0  0  0 35  0  0
    2.6836    6.6510    5.0264 H   0  0  0  0  0  0  0  0  0 39  0  0
    2.1184    5.1933    3.5769 C   0  0  0  0  0  0  0  0  0 36  0  0
    2.4286    5.7816    2.7234 H   0  0  0  0  0  0  0  0  0 38  0  0
    1.5643    3.9261    3.4037 C   0  0  0  0  0  0  0  0  0 37  0  0
    1.0373    4.2523   -1.6972 H   0  0  0  0  0  0  0  0  0 43  0  0
    1.5866    3.1431   -2.9808 H   0  0  0  0  0  0  0  0  0 44  0  0
  1  2  1  0
  1  3  1  0
  3  4  1  0
  4  5  4  0
  5  6  1  0
  5  7  4  0
  7  8  4  0
  8  9  4  0
  9 10  1  0
  9 11  4  0
 11 12  1  0
 12 13  1  0
 13 14  2  0
 13 15  1  0
 15 16  2  0
 16 17  1  0
 17 18  4  0
 18 19  1  0
 18 20  4  0
 20 21  1  0
 20 22  4  0
 22 23  1  0
 23 24  2  0
 23 25  1  0
 22 26  4  0
 26 27  1  0
 26 28  4  0
 28 29  1  0
 16 30  1  0
 15 31  1  0
 12 32  1  0
  8 33  4  0
 33 34  4  0
 34 35  4  0
 35 36  1  0
 35 37  4  0
 37 38  1  0
 37 39  4  0
 39 40  1  0
 39 41  4  0
 41 42  1  0
 41 43  4  0
  1 44  1  0
  1 45  1  0
 11  4  4  0
 28 17  4  0
 43 34  4  0
 43  7  4  0
M  CHG  2  23   1  25  -1
M  END
>  <sample_id>  (460)
train::COc1cc2c(cc1NC(=O)_C=C_c1ccc([N+](=O)[O-])cc1)oc1ccccc12__gen0000

>  <partition>  (460)
BAT_EXTERNAL_CONFIRM

>  <method>  (460)
BA_seed193

>  <candidate>  (460)
primary

$$$$
train::COc1cc2c(cc1NC(=O)_C=C_c1ccc([N+](=O)[O-])cc1)oc1ccccc12__gen0001
     RDKit          3D

 45 48  0  0  0  0  0  0  0  0999 V2000
   -3.5981    0.9997    3.9785 C   0  0  0  0  0  0  0  0  0  0  0  0
   -4.4208    1.7003    4.0342 H   0  0  0  0  0  0  0  0  0  1  0  0
   -2.7942    1.4511    2.9157 O   0  0  0  0  0  0  0  0  0  2  0  0
   -1.6445    0.7585    2.6261 C   0  0  0  0  0  0  0  0  0  3  0  0
   -1.2497   -0.3931    3.2726 C   0  0  0  0  0  0  0  0  0  4  0  0
   -1.8282   -0.8408    4.0598 H   0  0  0  0  0  0  0  0  0 42  0  0
   -0.0566   -0.9985    2.8677 C   0  0  0  0  0  0  0  0  0  5  0  0
    0.7110   -0.4232    1.8547 C   0  0  0  0  0  0  0  0  0  6  0  0
    0.3372    0.7373    1.2000 C   0  0  0  0  0  0  0  0  0  7  0  0
    0.9665    1.1888    0.4548 H   0  0  0  0  0  0  0  0  0 30  0  0
   -0.8844    1.3054    1.5692 C   0  0  0  0  0  0  0  0  0  8  0  0
   -1.3722    2.4726    0.9885 N   0  0  0  0  0  0  0  0  0  9  0  0
   -1.2715    2.9501   -0.2969 C   0  0  0  0  0  0  0  0  0 10  0  0
   -1.6985    4.0675   -0.5474 O   0  0  0  0  0  0  0  0  0 11  0  0
   -0.7376    2.0411   -1.3194 C   0  0  0  0  0  0  0  0  0 12  0  0
   -0.4566    2.4937   -2.5342 C   0  0  0  0  0  0  0  0  0 13  0  0
    0.0675    1.7271   -3.6577 C   0  0  0  0  0  0  0  0  0 14  0  0
    0.6181    0.4526   -3.4852 C   0  0  0  0  0  0  0  0  0 15  0  0
    0.6808    0.0126   -2.4983 H   0  0  0  0  0  0  0  0  0 26  0  0
    1.1222   -0.2375   -4.5637 C   0  0  0  0  0  0  0  0  0 16  0  0
    1.5648   -1.2088   -4.4516 H   0  0  0  0  0  0  0  0  0 25  0  0
    1.0904    0.3384   -5.8261 C   0  0  0  0  0  0  0  0  0 17  0  0
    1.6000   -0.3855   -6.9491 N   0  0  0  0  0  0  0  0  0 22  0  0
    1.4876    0.1096   -8.0556 O   0  0  0  0  0  0  0  0  0 23  0  0
    2.1429   -1.4468   -6.7429 O   0  0  0  0  0  0  0  0  0 24  0  0
    0.5325    1.5991   -6.0139 C   0  0  0  0  0  0  0  0  0 18  0  0
    0.5171    2.0209   -7.0069 H   0  0  0  0  0  0  0  0  0 21  0  0
    0.0377    2.2848   -4.9332 C   0  0  0  0  0  0  0  0  0 19  0  0
   -0.3626    3.2792   -5.0575 H   0  0  0  0  0  0  0  0  0 20  0  0
   -0.6346    3.5472   -2.7213 H   0  0  0  0  0  0  0  0  0 27  0  0
   -0.6269    0.9949   -1.0512 H   0  0  0  0  0  0  0  0  0 28  0  0
   -1.9321    3.0519    1.6053 H   0  0  0  0  0  0  0  0  0 29  0  0
    1.8475   -1.1479    1.6276 O   0  0  0  0  0  0  0  0  0 31  0  0
    1.8129   -2.2039    2.4716 C   0  0  0  0  0  0  0  0  0 32  0  0
    2.7667   -3.2042    2.5943 C   0  0  0  0  0  0  0  0  0 33  0  0
    3.6443   -3.2096    1.9770 H   0  0  0  0  0  0  0  0  0 41  0  0
    2.5236   -4.1941    3.5287 C   0  0  0  0  0  0  0  0  0 34  0  0
    3.2432   -4.9927    3.6446 H   0  0  0  0  0  0  0  0  0 40  0  0
    1.3884   -4.1851    4.3256 C   0  0  0  0  0  0  0  0  0 35  0  0
    1.2417   -4.9645    5.0639 H   0  0  0  0  0  0  0  0  0 39  0  0
    0.4459   -3.1885    4.2150 C   0  0  0  0  0  0  0  0  0 36  0  0
   -0.4410   -3.1781    4.8393 H   0  0  0  0  0  0  0  0  0 38  0  0
    0.6557   -2.1733    3.2749 C   0  0  0  0  0  0  0  0  0 37  0  0
   -3.9810   -0.0111    3.7903 H   0  0  0  0  0  0  0  0  0 43  0  0
   -3.0555    1.0029    4.9324 H   0  0  0  0  0  0  0  0  0 44  0  0
  1  2  1  0
  1  3  1  0
  3  4  1  0
  4  5  4  0
  5  6  1  0
  5  7  4  0
  7  8  4  0
  8  9  4  0
  9 10  1  0
  9 11  4  0
 11 12  1  0
 12 13  1  0
 13 14  2  0
 13 15  1  0
 15 16  2  0
 16 17  1  0
 17 18  4  0
 18 19  1  0
 18 20  4  0
 20 21  1  0
 20 22  4  0
 22 23  1  0
 23 24  2  0
 23 25  1  0
 22 26  4  0
 26 27  1  0
 26 28  4  0
 28 29  1  0
 16 30  1  0
 15 31  1  0
 12 32  1  0
  8 33  4  0
 33 34  4  0
 34 35  4  0
 35 36  1  0
 35 37  4  0
 37 38  1  0
 37 39  4  0
 39 40  1  0
 39 41  4  0
 41 42  1  0
 41 43  4  0
  1 44  1  0
  1 45  1  0
 11  4  4  0
 28 17  4  0
 43 34  4  0
 43  7  4  0
M  CHG  2  23   1  25  -1
M  END
>  <sample_id>  (461)
train::COc1cc2c(cc1NC(=O)_C=C_c1ccc([N+](=O)[O-])cc1)oc1ccccc12__gen0001

>  <partition>  (461)
BAT_EXTERNAL_CONFIRM

>  <method>  (461)
BA_seed193

>  <candidate>  (461)
primary

$$$$
train::COc1cc2c(cc1NC(=O)_C=C_c1ccc([N+](=O)[O-])cc1)oc1ccccc12__gen0002
     RDKit          3D

 45 48  0  0  0  0  0  0  0  0999 V2000
    3.5461   -3.3159    2.6489 C   0  0  0  0  0  0  0  0  0  0  0  0
    4.2783   -3.0738    1.8747 H   0  0  0  0  0  0  0  0  0  1  0  0
    2.4843   -2.3848    2.6512 O   0  0  0  0  0  0  0  0  0  2  0  0
    1.7050   -2.2637    1.5522 C   0  0  0  0  0  0  0  0  0  3  0  0
    1.8961   -2.9717    0.3761 C   0  0  0  0  0  0  0  0  0  4  0  0
    2.6783   -3.7064    0.2641 H   0  0  0  0  0  0  0  0  0 42  0  0
    1.0055   -2.7779   -0.6834 C   0  0  0  0  0  0  0  0  0  5  0  0
   -0.0421   -1.8526   -0.5520 C   0  0  0  0  0  0  0  0  0  6  0  0
   -0.2437   -1.1278    0.6058 C   0  0  0  0  0  0  0  0  0  7  0  0
   -1.0862   -0.4681    0.7035 H   0  0  0  0  0  0  0  0  0 30  0  0
    0.6533   -1.3215    1.6542 C   0  0  0  0  0  0  0  0  0  8  0  0
    0.5143   -0.6625    2.8717 N   0  0  0  0  0  0  0  0  0  9  0  0
    0.0277    0.5772    3.1896 C   0  0  0  0  0  0  0  0  0 10  0  0
   -0.1192    0.8962    4.3540 O   0  0  0  0  0  0  0  0  0 11  0  0
   -0.2545    1.4828    2.0592 C   0  0  0  0  0  0  0  0  0 12  0  0
   -1.1291    2.4751    2.2137 C   0  0  0  0  0  0  0  0  0 13  0  0
   -1.4730    3.4976    1.2496 C   0  0  0  0  0  0  0  0  0 14  0  0
   -0.8398    3.6211    0.0053 C   0  0  0  0  0  0  0  0  0 15  0  0
   -0.0564    2.9360   -0.2699 H   0  0  0  0  0  0  0  0  0 26  0  0
   -1.2158    4.6088   -0.8839 C   0  0  0  0  0  0  0  0  0 16  0  0
   -0.7239    4.7074   -1.8408 H   0  0  0  0  0  0  0  0  0 25  0  0
   -2.2263    5.4976   -0.5399 C   0  0  0  0  0  0  0  0  0 17  0  0
   -2.6192    6.5151   -1.4662 N   0  0  0  0  0  0  0  0  0 22  0  0
   -2.0196    6.5861   -2.5282 O   0  0  0  0  0  0  0  0  0 23  0  0
   -3.5213    7.2661   -1.1296 O   0  0  0  0  0  0  0  0  0 24  0  0
   -2.8687    5.3947    0.6902 C   0  0  0  0  0  0  0  0  0 18  0  0
   -3.6597    6.0976    0.9230 H   0  0  0  0  0  0  0  0  0 21  0  0
   -2.4955    4.4023    1.5712 C   0  0  0  0  0  0  0  0  0 19  0  0
   -2.9879    4.3111    2.5265 H   0  0  0  0  0  0  0  0  0 20  0  0
   -1.6378    2.5416    3.1673 H   0  0  0  0  0  0  0  0  0 27  0  0
    0.3212    1.3232    1.1553 H   0  0  0  0  0  0  0  0  0 28  0  0
    0.9125   -1.1691    3.6643 H   0  0  0  0  0  0  0  0  0 29  0  0
   -0.8000   -1.7941   -1.6684 O   0  0  0  0  0  0  0  0  0 31  0  0
   -0.2486   -2.6570   -2.5623 C   0  0  0  0  0  0  0  0  0 32  0  0
   -0.7012   -2.9571   -3.8422 C   0  0  0  0  0  0  0  0  0 33  0  0
   -1.5585   -2.4593   -4.2604 H   0  0  0  0  0  0  0  0  0 41  0  0
    0.0054   -3.9034   -4.5585 C   0  0  0  0  0  0  0  0  0 34  0  0
   -0.3092   -4.1478   -5.5646 H   0  0  0  0  0  0  0  0  0 40  0  0
    1.1257   -4.5475   -4.0247 C   0  0  0  0  0  0  0  0  0 35  0  0
    1.6490   -5.2744   -4.6281 H   0  0  0  0  0  0  0  0  0 39  0  0
    1.5611   -4.2711   -2.7503 C   0  0  0  0  0  0  0  0  0 36  0  0
    2.4289   -4.7562   -2.3371 H   0  0  0  0  0  0  0  0  0 38  0  0
    0.8722   -3.3106   -2.0016 C   0  0  0  0  0  0  0  0  0 37  0  0
    4.0031   -3.2338    3.6286 H   0  0  0  0  0  0  0  0  0 43  0  0
    3.1692   -4.3294    2.4922 H   0  0  0  0  0  0  0  0  0 44  0  0
  1  2  1  0
  1  3  1  0
  3  4  1  0
  4  5  4  0
  5  6  1  0
  5  7  4  0
  7  8  4  0
  8  9  4  0
  9 10  1  0
  9 11  4  0
 11 12  1  0
 12 13  1  0
 13 14  2  0
 13 15  1  0
 15 16  2  0
 16 17  1  0
 17 18  4  0
 18 19  1  0
 18 20  4  0
 20 21  1  0
 20 22  4  0
 22 23  1  0
 23 24  2  0
 23 25  1  0
 22 26  4  0
 26 27  1  0
 26 28  4  0
 28 29  1  0
 16 30  1  0
 15 31  1  0
 12 32  1  0
  8 33  4  0
 33 34  4  0
 34 35  4  0
 35 36  1  0
 35 37  4  0
 37 38  1  0
 37 39  4  0
 39 40  1  0
 39 41  4  0
 41 42  1  0
 41 43  4  0
  1 44  1  0
  1 45  1  0
 11  4  4  0
 28 17  4  0
 43 34  4  0
 43  7  4  0
M  CHG  2  23   1  25  -1
M  END
>  <sample_id>  (462)
train::COc1cc2c(cc1NC(=O)_C=C_c1ccc([N+](=O)[O-])cc1)oc1ccccc12__gen0002

>  <partition>  (462)
BAT_EXTERNAL_CONFIRM

>  <method>  (462)
BA_seed193

>  <candidate>  (462)
primary

$$$$
train::CCOCCCNC(=O)_C(C#N)=C_c1cc(OC)c(O)c([N+](=O)[O-])c1__gen0000
     RDKit          3D

 44 44  0  0  0  0  0  0  0  0999 V2000
    0.8291   -1.9183   -3.4188 C   0  0  0  0  0  0  0  0  0  0  0  0
    1.5978   -0.6394   -3.7072 C   0  0  0  0  0  0  0  0  0  1  0  0
    2.8415   -0.6881   -3.0385 O   0  0  0  0  0  0  0  0  0  2  0  0
    3.7935    0.2443   -3.4618 C   0  0  0  0  0  0  0  0  0  3  0  0
    3.5276    1.6897   -2.9700 C   0  0  0  0  0  0  0  0  0  4  0  0
    4.2759    2.3477   -3.4341 H   0  0  0  0  0  0  0  0  0  5  0  0
    3.6197    1.8036   -1.4530 C   0  0  0  0  0  0  0  0  0  6  0  0
    2.5884    1.0517   -0.8006 N   0  0  0  0  0  0  0  0  0  7  0  0
    1.5809    1.6408   -0.1285 C   0  0  0  0  0  0  0  0  0  8  0  0
    1.5077    2.8519    0.0352 O   0  0  0  0  0  0  0  0  0  9  0  0
    0.5523    0.7211    0.4572 C   0  0  0  0  0  0  0  0  0 10  0  0
   -0.3966    1.2835    1.2255 C   0  0  0  0  0  0  0  0  0 11  0  0
   -1.5033    0.6833    1.9402 C   0  0  0  0  0  0  0  0  0 12  0  0
   -2.3892    1.5168    2.6278 C   0  0  0  0  0  0  0  0  0 13  0  0
   -2.2347    2.5894    2.6209 H   0  0  0  0  0  0  0  0  0 29  0  0
   -3.4609    0.9939    3.3404 C   0  0  0  0  0  0  0  0  0 14  0  0
   -4.3191    1.9045    4.0235 N   0  0  0  0  0  0  0  0  0 26  0  0
   -4.0763    3.0919    3.9362 O   0  0  0  0  0  0  0  0  0 27  0  0
   -5.2687    1.4496    4.6653 O   0  0  0  0  0  0  0  0  0 28  0  0
   -3.6946   -0.3922    3.3761 C   0  0  0  0  0  0  0  0  0 15  0  0
   -4.7092   -0.9586    4.0256 O   0  0  0  0  0  0  0  0  0 24  0  0
   -5.2443   -0.2805    4.4783 H   0  0  0  0  0  0  0  0  0 25  0  0
   -2.7975   -1.2350    2.6875 C   0  0  0  0  0  0  0  0  0 16  0  0
   -3.0791   -2.5581    2.7612 O   0  0  0  0  0  0  0  0  0 19  0  0
   -2.2468   -3.4689    2.0952 C   0  0  0  0  0  0  0  0  0 20  0  0
   -2.2423   -3.2884    1.0109 H   0  0  0  0  0  0  0  0  0 21  0  0
   -2.6706   -4.4506    2.2914 H   0  0  0  0  0  0  0  0  0 22  0  0
   -1.2163   -3.4410    2.4808 H   0  0  0  0  0  0  0  0  0 23  0  0
   -1.7225   -0.7023    1.9885 C   0  0  0  0  0  0  0  0  0 17  0  0
   -1.0517   -1.3603    1.4700 H   0  0  0  0  0  0  0  0  0 18  0  0
   -0.3270    2.3681    1.3102 H   0  0  0  0  0  0  0  0  0 30  0  0
    0.6477   -0.6412    0.1452 C   0  0  0  0  0  0  0  0  0 31  0  0
    0.7356   -1.7512   -0.1327 N   0  0  0  0  0  0  0  0  0 32  0  0
    2.5868    0.0694   -1.0430 H   0  0  0  0  0  0  0  0  0 33  0  0
    4.5969    1.4406   -1.1249 H   0  0  0  0  0  0  0  0  0 34  0  0
    3.5055    2.8476   -1.1537 H   0  0  0  0  0  0  0  0  0 35  0  0
    2.5473    2.0164   -3.3152 H   0  0  0  0  0  0  0  0  0 36  0  0
    4.7487   -0.0872   -3.0426 H   0  0  0  0  0  0  0  0  0 37  0  0
    3.8664    0.2457   -4.5491 H   0  0  0  0  0  0  0  0  0 38  0  0
    1.0181    0.2360   -3.3675 H   0  0  0  0  0  0  0  0  0 39  0  0
    1.7567   -0.5356   -4.7918 H   0  0  0  0  0  0  0  0  0 40  0  0
    0.5700   -1.9592   -2.3667 H   0  0  0  0  0  0  0  0  0 41  0  0
    1.4389   -2.7805   -3.6863 H   0  0  0  0  0  0  0  0  0 42  0  0
   -0.0825   -1.9509   -4.0075 H   0  0  0  0  0  0  0  0  0 43  0  0
  1  2  1  0
  2  3  1  0
  3  4  1  0
  4  5  1  0
  5  6  1  0
  5  7  1  0
  7  8  1  0
  8  9  1  0
  9 10  2  0
  9 11  1  0
 11 12  2  0
 12 13  1  0
 13 14  4  0
 14 15  1  0
 14 16  4  0
 16 17  1  0
 17 18  2  0
 17 19  1  0
 16 20  4  0
 20 21  1  0
 21 22  1  0
 20 23  4  0
 23 24  1  0
 24 25  1  0
 25 26  1  0
 25 27  1  0
 25 28  1  0
 23 29  4  0
 29 30  1  0
 12 31  1  0
 11 32  1  0
 32 33  3  0
  8 34  1  0
  7 35  1  0
  7 36  1  0
  5 37  1  0
  4 38  1  0
  4 39  1  0
  2 40  1  0
  2 41  1  0
  1 42  1  0
  1 43  1  0
  1 44  1  0
 29 13  4  0
M  CHG  2  17   1  19  -1
M  END
>  <sample_id>  (463)
train::CCOCCCNC(=O)_C(C#N)=C_c1cc(OC)c(O)c([N+](=O)[O-])c1__gen0000

>  <partition>  (463)
BAT_EXTERNAL_CONFIRM

>  <method>  (463)
BA_seed193

>  <candidate>  (463)
primary

$$$$
train::CCOCCCNC(=O)_C(C#N)=C_c1cc(OC)c(O)c([N+](=O)[O-])c1__gen0001
     RDKit          3D

 44 44  0  0  0  0  0  0  0  0999 V2000
    4.8164   -2.9780    1.2481 C   0  0  0  0  0  0  0  0  0  0  0  0
    3.7406   -1.8835    1.2844 C   0  0  0  0  0  0  0  0  0  1  0  0
    4.1502   -0.7116    0.5901 O   0  0  0  0  0  0  0  0  0  2  0  0
    4.9655    0.1856    1.3033 C   0  0  0  0  0  0  0  0  0  3  0  0
    4.1795    1.1956    2.1453 C   0  0  0  0  0  0  0  0  0  4  0  0
    3.5424    0.6665    2.8607 H   0  0  0  0  0  0  0  0  0  5  0  0
    3.2936    2.0900    1.2683 C   0  0  0  0  0  0  0  0  0  6  0  0
    2.2660    1.3295    0.6377 N   0  0  0  0  0  0  0  0  0  7  0  0
    0.9722    1.7160    0.6449 C   0  0  0  0  0  0  0  0  0  8  0  0
    0.5959    2.7673    1.1236 O   0  0  0  0  0  0  0  0  0  9  0  0
    0.0189    0.7551   -0.0009 C   0  0  0  0  0  0  0  0  0 10  0  0
   -1.2740    1.1385   -0.1029 C   0  0  0  0  0  0  0  0  0 11  0  0
   -2.4109    0.4412   -0.6764 C   0  0  0  0  0  0  0  0  0 12  0  0
   -2.3927   -0.9146   -1.0148 C   0  0  0  0  0  0  0  0  0 13  0  0
   -1.5256   -1.5270   -0.8421 H   0  0  0  0  0  0  0  0  0 29  0  0
   -3.5281   -1.4999   -1.5667 C   0  0  0  0  0  0  0  0  0 14  0  0
   -3.4487   -2.9030   -1.8908 N   0  0  0  0  0  0  0  0  0 26  0  0
   -2.4404   -3.5017   -1.5861 O   0  0  0  0  0  0  0  0  0 27  0  0
   -4.4103   -3.4166   -2.4369 O   0  0  0  0  0  0  0  0  0 28  0  0
   -4.6986   -0.7731   -1.8122 C   0  0  0  0  0  0  0  0  0 15  0  0
   -5.8060   -1.2913   -2.3519 O   0  0  0  0  0  0  0  0  0 24  0  0
   -5.6639   -2.2253   -2.5765 H   0  0  0  0  0  0  0  0  0 25  0  0
   -4.7179    0.5990   -1.4426 C   0  0  0  0  0  0  0  0  0 16  0  0
   -5.8776    1.2389   -1.6962 O   0  0  0  0  0  0  0  0  0 19  0  0
   -5.9941    2.5994   -1.3622 C   0  0  0  0  0  0  0  0  0 20  0  0
   -7.0050    2.8848   -1.6291 H   0  0  0  0  0  0  0  0  0 21  0  0
   -5.2745    3.2148   -1.9142 H   0  0  0  0  0  0  0  0  0 22  0  0
   -5.8555    2.7505   -0.2846 H   0  0  0  0  0  0  0  0  0 23  0  0
   -3.5867    1.1757   -0.8961 C   0  0  0  0  0  0  0  0  0 17  0  0
   -3.5967    2.2155   -0.6291 H   0  0  0  0  0  0  0  0  0 18  0  0
   -1.4652    2.1340    0.2747 H   0  0  0  0  0  0  0  0  0 30  0  0
    0.5315   -0.4618   -0.4904 C   0  0  0  0  0  0  0  0  0 31  0  0
    0.9794   -1.4590   -0.8277 N   0  0  0  0  0  0  0  0  0 32  0  0
    2.5809    0.4405    0.2752 H   0  0  0  0  0  0  0  0  0 33  0  0
    2.8194    2.8779    1.8674 H   0  0  0  0  0  0  0  0  0 34  0  0
    3.9174    2.5845    0.5186 H   0  0  0  0  0  0  0  0  0 35  0  0
    4.8813    1.8144    2.6984 H   0  0  0  0  0  0  0  0  0 36  0  0
    5.5445    0.7198    0.5446 H   0  0  0  0  0  0  0  0  0 37  0  0
    5.6675   -0.3583    1.9437 H   0  0  0  0  0  0  0  0  0 38  0  0
    2.8437   -2.2211    0.7577 H   0  0  0  0  0  0  0  0  0 39  0  0
    3.4822   -1.6589    2.3216 H   0  0  0  0  0  0  0  0  0 40  0  0
    5.0927   -3.1784    0.2204 H   0  0  0  0  0  0  0  0  0 41  0  0
    5.6892   -2.6808    1.8112 H   0  0  0  0  0  0  0  0  0 42  0  0
    4.4013   -3.8915    1.6905 H   0  0  0  0  0  0  0  0  0 43  0  0
  1  2  1  0
  2  3  1  0
  3  4  1  0
  4  5  1  0
  5  6  1  0
  5  7  1  0
  7  8  1  0
  8  9  1  0
  9 10  2  0
  9 11  1  0
 11 12  2  0
 12 13  1  0
 13 14  4  0
 14 15  1  0
 14 16  4  0
 16 17  1  0
 17 18  2  0
 17 19  1  0
 16 20  4  0
 20 21  1  0
 21 22  1  0
 20 23  4  0
 23 24  1  0
 24 25  1  0
 25 26  1  0
 25 27  1  0
 25 28  1  0
 23 29  4  0
 29 30  1  0
 12 31  1  0
 11 32  1  0
 32 33  3  0
  8 34  1  0
  7 35  1  0
  7 36  1  0
  5 37  1  0
  4 38  1  0
  4 39  1  0
  2 40  1  0
  2 41  1  0
  1 42  1  0
  1 43  1  0
  1 44  1  0
 29 13  4  0
M  CHG  2  17   1  19  -1
M  END
>  <sample_id>  (464)
train::CCOCCCNC(=O)_C(C#N)=C_c1cc(OC)c(O)c([N+](=O)[O-])c1__gen0001

>  <partition>  (464)
BAT_EXTERNAL_CONFIRM

>  <method>  (464)
BA_seed193

>  <candidate>  (464)
primary

$$$$
train::CCOCCCNC(=O)_C(C#N)=C_c1cc(OC)c(O)c([N+](=O)[O-])c1__gen0002
     RDKit          3D

 44 44  0  0  0  0  0  0  0  0999 V2000
   -2.7406   -2.2170   -3.7825 C   0  0  0  0  0  0  0  0  0  0  0  0
   -2.5830   -1.1061   -2.7405 C   0  0  0  0  0  0  0  0  0  1  0  0
   -2.4521    0.1523   -3.3670 O   0  0  0  0  0  0  0  0  0  2  0  0
   -3.6136    0.9234   -3.4608 C   0  0  0  0  0  0  0  0  0  3  0  0
   -3.9140    1.7349   -2.1913 C   0  0  0  0  0  0  0  0  0  4  0  0
   -4.0811    1.0636   -1.3458 H   0  0  0  0  0  0  0  0  0  5  0  0
   -2.7757    2.6964   -1.8335 C   0  0  0  0  0  0  0  0  0  6  0  0
   -1.5621    1.9722   -1.4960 N   0  0  0  0  0  0  0  0  0  7  0  0
   -1.1104    1.8831   -0.2350 C   0  0  0  0  0  0  0  0  0  8  0  0
   -1.6125    2.4728    0.7091 O   0  0  0  0  0  0  0  0  0  9  0  0
    0.0797    0.9933   -0.0688 C   0  0  0  0  0  0  0  0  0 10  0  0
    0.5706    0.8279    1.1937 C   0  0  0  0  0  0  0  0  0 11  0  0
    1.6763    0.0512    1.6638 C   0  0  0  0  0  0  0  0  0 12  0  0
    2.4485   -0.8049    0.8695 C   0  0  0  0  0  0  0  0  0 13  0  0
    2.2439   -0.9267   -0.1826 H   0  0  0  0  0  0  0  0  0 29  0  0
    3.4967   -1.5329    1.4282 C   0  0  0  0  0  0  0  0  0 14  0  0
    4.2235   -2.3963    0.5620 N   0  0  0  0  0  0  0  0  0 26  0  0
    5.2046   -2.9872    1.0224 O   0  0  0  0  0  0  0  0  0 27  0  0
    3.8478   -2.5255   -0.5886 O   0  0  0  0  0  0  0  0  0 28  0  0
    3.8256   -1.4240    2.7961 C   0  0  0  0  0  0  0  0  0 15  0  0
    4.8233   -2.0920    3.3694 O   0  0  0  0  0  0  0  0  0 24  0  0
    5.2863   -2.6356    2.6958 H   0  0  0  0  0  0  0  0  0 25  0  0
    3.0436   -0.5805    3.6030 C   0  0  0  0  0  0  0  0  0 16  0  0
    3.3984   -0.5257    4.8987 O   0  0  0  0  0  0  0  0  0 19  0  0
    2.6833    0.3055    5.7737 C   0  0  0  0  0  0  0  0  0 20  0  0
    3.1467    0.1912    6.7565 H   0  0  0  0  0  0  0  0  0 21  0  0
    1.6300    0.0068    5.8307 H   0  0  0  0  0  0  0  0  0 22  0  0
    2.7555    1.3533    5.4717 H   0  0  0  0  0  0  0  0  0 23  0  0
    1.9977    0.1424    3.0261 C   0  0  0  0  0  0  0  0  0 17  0  0
    1.4017    0.7875    3.6541 H   0  0  0  0  0  0  0  0  0 18  0  0
    0.0200    1.4067    1.9354 H   0  0  0  0  0  0  0  0  0 30  0  0
    0.6146    0.4005   -1.2372 C   0  0  0  0  0  0  0  0  0 31  0  0
    1.0308   -0.0399   -2.2100 N   0  0  0  0  0  0  0  0  0 32  0  0
   -1.2268    1.3790   -2.2311 H   0  0  0  0  0  0  0  0  0 33  0  0
   -2.5633    3.3651   -2.6762 H   0  0  0  0  0  0  0  0  0 34  0  0
   -3.0486    3.3038   -0.9726 H   0  0  0  0  0  0  0  0  0 35  0  0
   -4.8329    2.3025   -2.3472 H   0  0  0  0  0  0  0  0  0 36  0  0
   -3.4288    1.6150   -4.2914 H   0  0  0  0  0  0  0  0  0 37  0  0
   -4.4890    0.3053   -3.7110 H   0  0  0  0  0  0  0  0  0 38  0  0
   -1.6558   -1.2396   -2.1809 H   0  0  0  0  0  0  0  0  0 39  0  0
   -3.4225   -1.1243   -2.0445 H   0  0  0  0  0  0  0  0  0 40  0  0
   -2.7408   -3.1776   -3.2637 H   0  0  0  0  0  0  0  0  0 41  0  0
   -3.6761   -2.1060   -4.3195 H   0  0  0  0  0  0  0  0  0 42  0  0
   -1.9189   -2.1941   -4.4818 H   0  0  0  0  0  0  0  0  0 43  0  0
  1  2  1  0
  2  3  1  0
  3  4  1  0
  4  5  1  0
  5  6  1  0
  5  7  1  0
  7  8  1  0
  8  9  1  0
  9 10  2  0
  9 11  1  0
 11 12  2  0
 12 13  1  0
 13 14  4  0
 14 15  1  0
 14 16  4  0
 16 17  1  0
 17 18  2  0
 17 19  1  0
 16 20  4  0
 20 21  1  0
 21 22  1  0
 20 23  4  0
 23 24  1  0
 24 25  1  0
 25 26  1  0
 25 27  1  0
 25 28  1  0
 23 29  4  0
 29 30  1  0
 12 31  1  0
 11 32  1  0
 32 33  3  0
  8 34  1  0
  7 35  1  0
  7 36  1  0
  5 37  1  0
  4 38  1  0
  4 39  1  0
  2 40  1  0
  2 41  1  0
  1 42  1  0
  1 43  1  0
  1 44  1  0
 29 13  4  0
M  CHG  2  17   1  19  -1
M  END
>  <sample_id>  (465)
train::CCOCCCNC(=O)_C(C#N)=C_c1cc(OC)c(O)c([N+](=O)[O-])c1__gen0002

>  <partition>  (465)
BAT_EXTERNAL_CONFIRM

>  <method>  (465)
BA_seed193

>  <candidate>  (465)
primary

$$$$
train::CC(CCc1ccco1)NC(=O)CCc1nnc2ccc(NCc3ccccc3)nn12__gen0000
     RDKit          3D

 57 60  0  0  0  0  0  0  0  0999 V2000
   -3.1335   -1.7108   -3.6891 C   0  0  0  0  0  0  0  0  0  0  0  0
   -2.8365   -2.3761   -4.4892 H   0  0  0  0  0  0  0  0  0  1  0  0
   -3.3342   -0.7263   -4.0981 H   0  0  0  0  0  0  0  0  0  2  0  0
   -4.0470   -2.0745   -3.2201 H   0  0  0  0  0  0  0  0  0  3  0  0
   -2.0212   -1.6315   -2.6421 C   0  0  1  0  0  0  0  0  0  4  0  0
   -2.2925   -0.5397   -1.7105 N   0  0  0  0  0  0  0  0  0  5  0  0
   -1.5277    0.5719   -1.7046 C   0  0  0  0  0  0  0  0  0  6  0  0
   -0.6181    0.7416   -2.4940 O   0  0  0  0  0  0  0  0  0  7  0  0
   -1.8551    1.6598   -0.6871 C   0  0  0  0  0  0  0  0  0  8  0  0
   -0.9051    1.9343   -0.2325 H   0  0  0  0  0  0  0  0  0  9  0  0
   -2.2200    2.5170   -1.2636 H   0  0  0  0  0  0  0  0  0 10  0  0
   -2.8732    1.3500    0.4095 C   0  0  0  0  0  0  0  0  0 11  0  0
   -2.4723    0.1542    1.1986 C   0  0  0  0  0  0  0  0  0 12  0  0
   -3.0475   -1.0172    1.2187 N   0  0  0  0  0  0  0  0  0 13  0  0
   -2.3874   -1.8355    2.0121 N   0  0  0  0  0  0  0  0  0 14  0  0
   -1.3611   -1.1522    2.5143 C   0  0  0  0  0  0  0  0  0 15  0  0
   -0.3093   -1.5024    3.3654 C   0  0  0  0  0  0  0  0  0 16  0  0
   -0.2445   -2.4855    3.7835 H   0  0  0  0  0  0  0  0  0 38  0  0
    0.6002   -0.4965    3.6564 C   0  0  0  0  0  0  0  0  0 17  0  0
    1.4558   -0.7042    4.2873 H   0  0  0  0  0  0  0  0  0 37  0  0
    0.4817    0.7880    3.0602 C   0  0  0  0  0  0  0  0  0 18  0  0
    1.3736    1.7517    3.3671 N   0  0  0  0  0  0  0  0  0 21  0  0
    2.2146    1.4414    3.8386 H   0  0  0  0  0  0  0  0  0 22  0  0
    1.5475    2.9273    2.5317 C   0  0  0  0  0  0  0  0  0 23  0  0
    2.3761    2.6511    1.3001 C   0  0  0  0  0  0  0  0  0 24  0  0
    1.9350    3.0252    0.0393 C   0  0  0  0  0  0  0  0  0 25  0  0
    0.9776    3.5136   -0.0640 H   0  0  0  0  0  0  0  0  0 34  0  0
    2.7113    2.7782   -1.0775 C   0  0  0  0  0  0  0  0  0 26  0  0
    2.3492    3.0734   -2.0569 H   0  0  0  0  0  0  0  0  0 33  0  0
    3.9465    2.1746   -0.9476 C   0  0  0  0  0  0  0  0  0 27  0  0
    4.5339    1.9766   -1.8327 H   0  0  0  0  0  0  0  0  0 32  0  0
    4.4008    1.8161    0.3140 C   0  0  0  0  0  0  0  0  0 28  0  0
    5.3688    1.3502    0.4194 H   0  0  0  0  0  0  0  0  0 31  0  0
    3.6242    2.0619    1.4298 C   0  0  0  0  0  0  0  0  0 29  0  0
    3.9873    1.7814    2.3968 H   0  0  0  0  0  0  0  0  0 30  0  0
    0.5562    3.2763    2.2345 H   0  0  0  0  0  0  0  0  0 35  0  0
    2.0250    3.7114    3.1271 H   0  0  0  0  0  0  0  0  0 36  0  0
   -0.5277    1.1281    2.2515 N   0  0  0  0  0  0  0  0  0 19  0  0
   -1.3924    0.1339    2.0191 N   0  0  0  0  0  0  0  0  0 20  0  0
   -2.9335    2.2078    1.0779 H   0  0  0  0  0  0  0  0  0 39  0  0
   -3.8698    1.1698   -0.0106 H   0  0  0  0  0  0  0  0  0 40  0  0
   -3.0333   -0.6756   -1.0368 H   0  0  0  0  0  0  0  0  0 41  0  0
   -1.0696   -1.3681   -3.1132 H   0  0  0  0  0  0  0  0  0 42  0  0
   -1.8909   -2.9984   -1.9540 C   0  0  0  0  0  0  0  0  0 43  0  0
   -1.5141   -3.7095   -2.6867 H   0  0  0  0  0  0  0  0  0 44  0  0
   -2.8863   -3.3249   -1.6584 H   0  0  0  0  0  0  0  0  0 45  0  0
   -0.9947   -3.0281   -0.7019 C   0  0  0  0  0  0  0  0  0 46  0  0
    0.3180   -2.3425   -0.8611 C   0  0  0  0  0  0  0  0  0 47  0  0
    1.5396   -2.8055   -1.2690 C   0  0  0  0  0  0  0  0  0 48  0  0
    1.7794   -3.8074   -1.5422 H   0  0  0  0  0  0  0  0  0 54  0  0
    2.4174   -1.6993   -1.1918 C   0  0  0  0  0  0  0  0  0 49  0  0
    3.4557   -1.7095   -1.4318 H   0  0  0  0  0  0  0  0  0 53  0  0
    1.6652   -0.6462   -0.7568 C   0  0  0  0  0  0  0  0  0 50  0  0
    1.9073    0.3742   -0.5616 H   0  0  0  0  0  0  0  0  0 52  0  0
    0.3957   -1.0348   -0.5528 O   0  0  0  0  0  0  0  0  0 51  0  0
   -0.7915   -4.0668   -0.4312 H   0  0  0  0  0  0  0  0  0 55  0  0
   -1.5535   -2.5719    0.1169 H   0  0  0  0  0  0  0  0  0 56  0  0
  1  2  1  0
  1  3  1  0
  1  4  1  0
  1  5  1  0
  5  6  1  0
  6  7  1  0
  7  8  2  0
  7  9  1  0
  9 10  1  0
  9 11  1  0
  9 12  1  0
 12 13  1  0
 13 14  4  0
 14 15  4  0
 15 16  4  0
 16 17  4  0
 17 18  1  0
 17 19  4  0
 19 20  1  0
 19 21  4  0
 21 22  1  0
 22 23  1  0
 22 24  1  0
 24 25  1  0
 25 26  4  0
 26 27  1  0
 26 28  4  0
 28 29  1  0
 28 30  4  0
 30 31  1  0
 30 32  4  0
 32 33  1  0
 32 34  4  0
 34 35  1  0
 24 36  1  0
 24 37  1  0
 21 38  4  0
 38 39  4  0
 12 40  1  0
 12 41  1  0
  6 42  1  0
  5 43  1  6
  5 44  1  0
 44 45  1  0
 44 46  1  0
 44 47  1  0
 47 48  1  0
 48 49  4  0
 49 50  1  0
 49 51  4  0
 51 52  1  0
 51 53  4  0
 53 54  1  0
 53 55  4  0
 47 56  1  0
 47 57  1  0
 39 13  4  0
 55 48  4  0
 39 16  4  0
 34 25  4  0
M  END
>  <sample_id>  (466)
train::CC(CCc1ccco1)NC(=O)CCc1nnc2ccc(NCc3ccccc3)nn12__gen0000

>  <partition>  (466)
BAT_EXTERNAL_CONFIRM

>  <method>  (466)
BA_seed193

>  <candidate>  (466)
primary

$$$$
train::CC(CCc1ccco1)NC(=O)CCc1nnc2ccc(NCc3ccccc3)nn12__gen0001
     RDKit          3D

 57 60  0  0  0  0  0  0  0  0999 V2000
   -2.2598    0.1228    5.2742 C   0  0  0  0  0  0  0  0  0  0  0  0
   -3.0944    0.7808    5.0759 H   0  0  0  0  0  0  0  0  0  1  0  0
   -1.3852    0.7473    5.4736 H   0  0  0  0  0  0  0  0  0  2  0  0
   -2.4640   -0.4728    6.1548 H   0  0  0  0  0  0  0  0  0  3  0  0
   -1.9856   -0.7953    4.0943 C   0  0  1  0  0  0  0  0  0  4  0  0
   -1.6882   -0.0608    2.8642 N   0  0  0  0  0  0  0  0  0  5  0  0
   -2.2510    1.0726    2.4569 C   0  0  0  0  0  0  0  0  0  6  0  0
   -3.0222    1.7509    3.0926 O   0  0  0  0  0  0  0  0  0  7  0  0
   -1.8314    1.4766    1.0295 C   0  0  0  0  0  0  0  0  0  8  0  0
   -2.1332    2.5057    0.8652 H   0  0  0  0  0  0  0  0  0  9  0  0
   -0.7451    1.4063    0.9217 H   0  0  0  0  0  0  0  0  0 10  0  0
   -2.5188    0.6134   -0.0444 C   0  0  0  0  0  0  0  0  0 11  0  0
   -1.8854   -0.7063   -0.2200 C   0  0  0  0  0  0  0  0  0 12  0  0
   -1.9908   -1.7573    0.5564 N   0  0  0  0  0  0  0  0  0 13  0  0
   -1.2671   -2.7401    0.1205 N   0  0  0  0  0  0  0  0  0 14  0  0
   -0.6515   -2.3441   -0.9884 C   0  0  0  0  0  0  0  0  0 15  0  0
    0.2506   -2.9362   -1.8712 C   0  0  0  0  0  0  0  0  0 16  0  0
    0.5677   -3.9426   -1.6962 H   0  0  0  0  0  0  0  0  0 38  0  0
    0.6907   -2.1837   -2.9135 C   0  0  0  0  0  0  0  0  0 17  0  0
    1.4153   -2.5795   -3.6156 H   0  0  0  0  0  0  0  0  0 37  0  0
    0.2045   -0.8531   -3.1000 C   0  0  0  0  0  0  0  0  0 18  0  0
    0.5688   -0.1800   -4.2078 N   0  0  0  0  0  0  0  0  0 21  0  0
    1.3593   -0.5308   -4.7170 H   0  0  0  0  0  0  0  0  0 22  0  0
    0.2443    1.2322   -4.4203 C   0  0  0  0  0  0  0  0  0 23  0  0
    1.3360    2.1583   -3.9911 C   0  0  0  0  0  0  0  0  0 24  0  0
    1.7863    3.1578   -4.8408 C   0  0  0  0  0  0  0  0  0 25  0  0
    1.3207    3.2891   -5.8078 H   0  0  0  0  0  0  0  0  0 34  0  0
    2.8035    4.0197   -4.4445 C   0  0  0  0  0  0  0  0  0 26  0  0
    3.1153    4.7946   -5.1221 H   0  0  0  0  0  0  0  0  0 33  0  0
    3.3788    3.8763   -3.2097 C   0  0  0  0  0  0  0  0  0 27  0  0
    4.1795    4.5278   -2.9007 H   0  0  0  0  0  0  0  0  0 32  0  0
    2.9667    2.8593   -2.3600 C   0  0  0  0  0  0  0  0  0 28  0  0
    3.4089    2.7499   -1.4019 H   0  0  0  0  0  0  0  0  0 31  0  0
    1.9366    2.0114   -2.7466 C   0  0  0  0  0  0  0  0  0 29  0  0
    1.6065    1.2296   -2.0845 H   0  0  0  0  0  0  0  0  0 30  0  0
   -0.6576    1.4262   -3.8404 H   0  0  0  0  0  0  0  0  0 35  0  0
    0.0259    1.3641   -5.4777 H   0  0  0  0  0  0  0  0  0 36  0  0
   -0.6487   -0.2835   -2.2730 N   0  0  0  0  0  0  0  0  0 19  0  0
   -1.0483   -1.0350   -1.2421 N   0  0  0  0  0  0  0  0  0 20  0  0
   -3.5693    0.4300    0.2443 H   0  0  0  0  0  0  0  0  0 39  0  0
   -2.5026    1.1514   -0.9772 H   0  0  0  0  0  0  0  0  0 40  0  0
   -1.0528   -0.5718    2.2588 H   0  0  0  0  0  0  0  0  0 41  0  0
   -2.8574   -1.4279    3.8803 H   0  0  0  0  0  0  0  0  0 42  0  0
   -0.8069   -1.7052    4.4496 C   0  0  0  0  0  0  0  0  0 43  0  0
    0.0355   -1.0978    4.7814 H   0  0  0  0  0  0  0  0  0 44  0  0
   -1.1090   -2.3258    5.2917 H   0  0  0  0  0  0  0  0  0 45  0  0
   -0.3720   -2.6223    3.2909 C   0  0  0  0  0  0  0  0  0 46  0  0
    0.6531   -2.0315    2.3869 C   0  0  0  0  0  0  0  0  0 47  0  0
    1.2742   -0.8057    2.3411 C   0  0  0  0  0  0  0  0  0 48  0  0
    1.1302    0.0057    3.0353 H   0  0  0  0  0  0  0  0  0 54  0  0
    2.1713   -0.8391    1.2530 C   0  0  0  0  0  0  0  0  0 49  0  0
    2.8327   -0.0492    0.9256 H   0  0  0  0  0  0  0  0  0 53  0  0
    2.0501   -2.0827    0.7127 C   0  0  0  0  0  0  0  0  0 50  0  0
    2.5453   -2.5699   -0.1043 H   0  0  0  0  0  0  0  0  0 52  0  0
    1.1417   -2.8035    1.3838 O   0  0  0  0  0  0  0  0  0 51  0  0
   -1.2573   -2.8712    2.7227 H   0  0  0  0  0  0  0  0  0 55  0  0
    0.0557   -3.5548    3.6804 H   0  0  0  0  0  0  0  0  0 56  0  0
  1  2  1  0
  1  3  1  0
  1  4  1  0
  1  5  1  0
  5  6  1  0
  6  7  1  0
  7  8  2  0
  7  9  1  0
  9 10  1  0
  9 11  1  0
  9 12  1  0
 12 13  1  0
 13 14  4  0
 14 15  4  0
 15 16  4  0
 16 17  4  0
 17 18  1  0
 17 19  4  0
 19 20  1  0
 19 21  4  0
 21 22  1  0
 22 23  1  0
 22 24  1  0
 24 25  1  0
 25 26  4  0
 26 27  1  0
 26 28  4  0
 28 29  1  0
 28 30  4  0
 30 31  1  0
 30 32  4  0
 32 33  1  0
 32 34  4  0
 34 35  1  0
 24 36  1  0
 24 37  1  0
 21 38  4  0
 38 39  4  0
 12 40  1  0
 12 41  1  0
  6 42  1  0
  5 43  1  6
  5 44  1  0
 44 45  1  0
 44 46  1  0
 44 47  1  0
 47 48  1  0
 48 49  4  0
 49 50  1  0
 49 51  4  0
 51 52  1  0
 51 53  4  0
 53 54  1  0
 53 55  4  0
 47 56  1  0
 47 57  1  0
 39 13  4  0
 55 48  4  0
 39 16  4  0
 34 25  4  0
M  END
>  <sample_id>  (467)
train::CC(CCc1ccco1)NC(=O)CCc1nnc2ccc(NCc3ccccc3)nn12__gen0001

>  <partition>  (467)
BAT_EXTERNAL_CONFIRM

>  <method>  (467)
BA_seed193

>  <candidate>  (467)
primary

$$$$
train::CC(CCc1ccco1)NC(=O)CCc1nnc2ccc(NCc3ccccc3)nn12__gen0002
     RDKit          3D

 57 60  0  0  0  0  0  0  0  0999 V2000
   -1.9226   -2.5783   -1.4482 C   0  0  0  0  0  0  0  0  0  0  0  0
   -2.7982   -2.9077   -0.9009 H   0  0  0  0  0  0  0  0  0  1  0  0
   -1.1815   -3.3801   -1.4529 H   0  0  0  0  0  0  0  0  0  2  0  0
   -2.1987   -2.3658   -2.4653 H   0  0  0  0  0  0  0  0  0  3  0  0
   -1.3246   -1.3282   -0.7707 C   0  0  1  0  0  0  0  0  0  4  0  0
   -0.1121   -0.9408   -1.4238 N   0  0  0  0  0  0  0  0  0  5  0  0
    1.0521   -1.6427   -1.2105 C   0  0  0  0  0  0  0  0  0  6  0  0
    1.1159   -2.6566   -0.5294 O   0  0  0  0  0  0  0  0  0  7  0  0
    2.3241   -1.1216   -1.7965 C   0  0  0  0  0  0  0  0  0  8  0  0
    3.0432   -1.1228   -0.9866 H   0  0  0  0  0  0  0  0  0  9  0  0
    2.6645   -1.8805   -2.5180 H   0  0  0  0  0  0  0  0  0 10  0  0
    2.3121    0.2085   -2.5359 C   0  0  0  0  0  0  0  0  0 11  0  0
    1.6675    1.3269   -1.8173 C   0  0  0  0  0  0  0  0  0 12  0  0
    1.1076    2.3331   -2.4558 N   0  0  0  0  0  0  0  0  0 13  0  0
    0.6657    3.2427   -1.5958 N   0  0  0  0  0  0  0  0  0 14  0  0
    0.9139    2.7973   -0.3970 C   0  0  0  0  0  0  0  0  0 15  0  0
    0.6867    3.3432    0.8949 C   0  0  0  0  0  0  0  0  0 16  0  0
    0.2302    4.3113    0.9808 H   0  0  0  0  0  0  0  0  0 38  0  0
    1.0625    2.5907    1.9590 C   0  0  0  0  0  0  0  0  0 17  0  0
    0.9161    2.9587    2.9798 H   0  0  0  0  0  0  0  0  0 37  0  0
    1.6496    1.3064    1.7737 C   0  0  0  0  0  0  0  0  0 18  0  0
    2.0166    0.6227    2.8977 N   0  0  0  0  0  0  0  0  0 21  0  0
    1.7117    1.0285    3.7716 H   0  0  0  0  0  0  0  0  0 22  0  0
    2.3833   -0.7783    2.9592 C   0  0  0  0  0  0  0  0  0 23  0  0
    1.1918   -1.6621    3.2034 C   0  0  0  0  0  0  0  0  0 24  0  0
    0.8446   -2.6430    2.2989 C   0  0  0  0  0  0  0  0  0 25  0  0
    1.4401   -2.7482    1.3987 H   0  0  0  0  0  0  0  0  0 34  0  0
   -0.2835   -3.4193    2.4949 C   0  0  0  0  0  0  0  0  0 26  0  0
   -0.5294   -4.1781    1.7771 H   0  0  0  0  0  0  0  0  0 33  0  0
   -1.0580   -3.2495    3.6280 C   0  0  0  0  0  0  0  0  0 27  0  0
   -1.9425   -3.8437    3.7749 H   0  0  0  0  0  0  0  0  0 32  0  0
   -0.7134   -2.2864    4.5468 C   0  0  0  0  0  0  0  0  0 28  0  0
   -1.3167   -2.1235    5.4415 H   0  0  0  0  0  0  0  0  0 31  0  0
    0.4106   -1.5073    4.3539 C   0  0  0  0  0  0  0  0  0 29  0  0
    0.6775   -0.7472    5.0720 H   0  0  0  0  0  0  0  0  0 30  0  0
    2.8594   -1.0419    2.0116 H   0  0  0  0  0  0  0  0  0 35  0  0
    3.1035   -0.8843    3.7860 H   0  0  0  0  0  0  0  0  0 36  0  0
    1.8926    0.7799    0.5677 N   0  0  0  0  0  0  0  0  0 19  0  0
    1.5320    1.5622   -0.4632 N   0  0  0  0  0  0  0  0  0 20  0  0
    3.3435    0.4944   -2.7336 H   0  0  0  0  0  0  0  0  0 39  0  0
    1.7977    0.1565   -3.4922 H   0  0  0  0  0  0  0  0  0 40  0  0
   -0.1761   -0.3258   -2.2322 H   0  0  0  0  0  0  0  0  0 41  0  0
   -1.0127   -1.6331    0.2348 H   0  0  0  0  0  0  0  0  0 42  0  0
   -2.3138   -0.1634   -0.6922 C   0  0  0  0  0  0  0  0  0 43  0  0
   -3.2258   -0.5236   -0.2042 H   0  0  0  0  0  0  0  0  0 44  0  0
   -1.8836    0.5870   -0.0768 H   0  0  0  0  0  0  0  0  0 45  0  0
   -2.7641    0.4203   -2.0641 C   0  0  0  0  0  0  0  0  0 46  0  0
   -2.1548    1.7486   -2.3836 C   0  0  0  0  0  0  0  0  0 47  0  0
   -2.1838    2.9516   -1.7191 C   0  0  0  0  0  0  0  0  0 48  0  0
   -2.6349    3.1171   -0.7516 H   0  0  0  0  0  0  0  0  0 54  0  0
   -1.5761    3.8915   -2.5724 C   0  0  0  0  0  0  0  0  0 49  0  0
   -1.4598    4.9408   -2.3723 H   0  0  0  0  0  0  0  0  0 53  0  0
   -1.2063    3.2071   -3.6825 C   0  0  0  0  0  0  0  0  0 50  0  0
   -0.7271    3.5218   -4.5647 H   0  0  0  0  0  0  0  0  0 52  0  0
   -1.5345    1.9200   -3.5858 O   0  0  0  0  0  0  0  0  0 51  0  0
   -3.8464    0.5804   -2.0259 H   0  0  0  0  0  0  0  0  0 55  0  0
   -2.5355   -0.2653   -2.8856 H   0  0  0  0  0  0  0  0  0 56  0  0
  1  2  1  0
  1  3  1  0
  1  4  1  0
  1  5  1  0
  5  6  1  0
  6  7  1  0
  7  8  2  0
  7  9  1  0
  9 10  1  0
  9 11  1  0
  9 12  1  0
 12 13  1  0
 13 14  4  0
 14 15  4  0
 15 16  4  0
 16 17  4  0
 17 18  1  0
 17 19  4  0
 19 20  1  0
 19 21  4  0
 21 22  1  0
 22 23  1  0
 22 24  1  0
 24 25  1  0
 25 26  4  0
 26 27  1  0
 26 28  4  0
 28 29  1  0
 28 30  4  0
 30 31  1  0
 30 32  4  0
 32 33  1  0
 32 34  4  0
 34 35  1  0
 24 36  1  0
 24 37  1  0
 21 38  4  0
 38 39  4  0
 12 40  1  0
 12 41  1  0
  6 42  1  0
  5 43  1  1
  5 44  1  0
 44 45  1  0
 44 46  1  0
 44 47  1  0
 47 48  1  0
 48 49  4  0
 49 50  1  0
 49 51  4  0
 51 52  1  0
 51 53  4  0
 53 54  1  0
 53 55  4  0
 47 56  1  0
 47 57  1  0
 39 13  4  0
 55 48  4  0
 39 16  4  0
 34 25  4  0
M  END
>  <sample_id>  (468)
train::CC(CCc1ccco1)NC(=O)CCc1nnc2ccc(NCc3ccccc3)nn12__gen0002

>  <partition>  (468)
BAT_EXTERNAL_CONFIRM

>  <method>  (468)
BA_seed193

>  <candidate>  (468)
primary

$$$$
train::CC(=O)N1CCc2cc(S(=O)(=O)C(C)CC(=O)Nc3ccc(OC(F)(F)F)cc3)ccc21__gen0000
     RDKit          3D

 53 55  0  0  0  0  0  0  0  0999 V2000
    2.5347    2.4338    3.2284 C   0  0  0  0  0  0  0  0  0  0  0  0
    1.2118    2.2910    2.5189 C   0  0  0  0  0  0  0  0  0  1  0  0
    0.5502    3.2423    2.1717 O   0  0  0  0  0  0  0  0  0  2  0  0
    0.8140    1.0137    2.2909 N   0  0  0  0  0  0  0  0  0  3  0  0
   -0.3493    0.6027    1.6344 C   0  0  0  0  0  0  0  0  0  4  0  0
   -1.4034    1.3932    1.1926 C   0  0  0  0  0  0  0  0  0  5  0  0
   -1.3996    2.4632    1.3266 H   0  0  0  0  0  0  0  0  0 49  0  0
   -2.4716    0.7609    0.5685 C   0  0  0  0  0  0  0  0  0  6  0  0
   -3.3005    1.3222    0.1793 H   0  0  0  0  0  0  0  0  0 48  0  0
   -2.4394   -0.6180    0.3788 C   0  0  0  0  0  0  0  0  0  7  0  0
   -3.8049   -1.4073   -0.4768 S   0  0  1  0  0  6  0  0  0 17  0  0
   -4.0910   -2.6562    0.1867 O   0  0  0  0  0  0  0  0  0 18  0  0
   -4.8941   -0.4918   -0.6582 O   0  0  0  0  0  0  0  0  0 19  0  0
   -3.1461   -1.8619   -2.1449 C   0  0  1  0  0  0  0  0  0 20  0  0
   -4.1991   -2.7590   -2.7881 C   0  0  0  0  0  0  0  0  0 21  0  0
   -5.1032   -2.1784   -2.9728 H   0  0  0  0  0  0  0  0  0 22  0  0
   -4.4467   -3.5584   -2.1000 H   0  0  0  0  0  0  0  0  0 23  0  0
   -3.8473   -3.1814   -3.7189 H   0  0  0  0  0  0  0  0  0 24  0  0
   -2.9154   -0.5813   -2.9660 C   0  0  0  0  0  0  0  0  0 25  0  0
   -1.8181    0.3205   -2.4589 C   0  0  0  0  0  0  0  0  0 26  0  0
   -1.9809    1.5097   -2.3304 O   0  0  0  0  0  0  0  0  0 27  0  0
   -0.6440   -0.3239   -2.2172 N   0  0  0  0  0  0  0  0  0 28  0  0
    0.5238    0.1787   -1.6311 C   0  0  0  0  0  0  0  0  0 29  0  0
    0.6932    1.5145   -1.2833 C   0  0  0  0  0  0  0  0  0 30  0  0
   -0.1139    2.2093   -1.4637 H   0  0  0  0  0  0  0  0  0 43  0  0
    1.8547    1.9421   -0.6846 C   0  0  0  0  0  0  0  0  0 31  0  0
    1.9729    2.9738   -0.3848 H   0  0  0  0  0  0  0  0  0 42  0  0
    2.8691    1.0406   -0.4222 C   0  0  0  0  0  0  0  0  0 32  0  0
    3.9905    1.5607    0.2273 O   0  0  0  0  0  0  0  0  0 37  0  0
    5.0300    0.7790    0.4566 C   0  0  2  0  0  0  0  0  0 38  0  0
    5.6263    0.2978   -0.6460 F   0  0  0  0  0  0  0  0  0 39  0  0
    4.7898   -0.2747    1.2553 F   0  0  0  0  0  0  0  0  0 40  0  0
    5.9603    1.4965    1.1097 F   0  0  0  0  0  0  0  0  0 41  0  0
    2.7372   -0.2938   -0.8099 C   0  0  0  0  0  0  0  0  0 33  0  0
    3.5316   -0.9908   -0.6186 H   0  0  0  0  0  0  0  0  0 36  0  0
    1.5708   -0.7109   -1.4036 C   0  0  0  0  0  0  0  0  0 34  0  0
    1.4670   -1.7452   -1.6894 H   0  0  0  0  0  0  0  0  0 35  0  0
   -0.6109   -1.3160   -2.4039 H   0  0  0  0  0  0  0  0  0 44  0  0
   -3.8430   -0.0155   -2.9640 H   0  0  0  0  0  0  0  0  0 45  0  0
   -2.6844   -0.8652   -4.0008 H   0  0  0  0  0  0  0  0  0 46  0  0
   -2.2240   -2.4254   -1.9796 H   0  0  0  0  0  0  0  0  0 47  0  0
   -1.4157   -1.4068    0.8424 C   0  0  0  0  0  0  0  0  0  8  0  0
   -1.4730   -2.4813    0.7303 H   0  0  0  0  0  0  0  0  0 16  0  0
   -0.3697   -0.7786    1.4899 C   0  0  0  0  0  0  0  0  0  9  0  0
    0.8577   -1.3856    2.0896 C   0  0  0  0  0  0  0  0  0 10  0  0
    1.4763   -1.8442    1.3321 H   0  0  0  0  0  0  0  0  0 11  0  0
    0.6178   -2.1291    2.8520 H   0  0  0  0  0  0  0  0  0 12  0  0
    1.5672   -0.1679    2.7254 C   0  0  0  0  0  0  0  0  0 13  0  0
    1.5774   -0.2313    3.8137 H   0  0  0  0  0  0  0  0  0 14  0  0
    2.5979   -0.0906    2.3726 H   0  0  0  0  0  0  0  0  0 15  0  0
    3.3379    1.9591    2.6774 H   0  0  0  0  0  0  0  0  0 50  0  0
    2.4785    1.9773    4.2191 H   0  0  0  0  0  0  0  0  0 51  0  0
    2.7505    3.4879    3.3477 H   0  0  0  0  0  0  0  0  0 52  0  0
  1  2  1  0
  2  3  2  0
  2  4  1  0
  4  5  1  0
  5  6  4  0
  6  7  1  0
  6  8  4  0
  8  9  1  0
  8 10  4  0
 11 10  1  1
 11 12  2  0
 11 13  2  0
 11 14  1  0
 14 15  1  0
 15 16  1  0
 15 17  1  0
 15 18  1  0
 14 19  1  0
 19 20  1  0
 20 21  2  0
 20 22  1  0
 22 23  1  0
 23 24  4  0
 24 25  1  0
 24 26  4  0
 26 27  1  0
 26 28  4  0
 28 29  1  0
 29 30  1  0
 30 31  1  6
 30 32  1  0
 30 33  1  0
 28 34  4  0
 34 35  1  0
 34 36  4  0
 36 37  1  0
 22 38  1  0
 19 39  1  0
 19 40  1  0
 14 41  1  1
 10 42  4  0
 42 43  1  0
 42 44  4  0
 44 45  1  0
 45 46  1  0
 45 47  1  0
 45 48  1  0
 48 49  1  0
 48 50  1  0
  1 51  1  0
  1 52  1  0
  1 53  1  0
 48  4  1  0
 44  5  4  0
 36 23  4  0
M  END
>  <sample_id>  (469)
train::CC(=O)N1CCc2cc(S(=O)(=O)C(C)CC(=O)Nc3ccc(OC(F)(F)F)cc3)ccc21__gen0000

>  <partition>  (469)
BAT_EXTERNAL_CONFIRM

>  <method>  (469)
BA_seed193

>  <candidate>  (469)
primary

$$$$
train::CC(=O)N1CCc2cc(S(=O)(=O)C(C)CC(=O)Nc3ccc(OC(F)(F)F)cc3)ccc21__gen0001
     RDKit          3D

 53 55  0  0  0  0  0  0  0  0999 V2000
    4.0997    2.1675    1.7464 C   0  0  0  0  0  0  0  0  0  0  0  0
    2.7674    1.4887    1.8947 C   0  0  0  0  0  0  0  0  0  1  0  0
    2.5638    0.6243    2.7286 O   0  0  0  0  0  0  0  0  0  2  0  0
    1.7835    1.9144    1.0528 N   0  0  0  0  0  0  0  0  0  3  0  0
    0.4943    1.3988    0.9796 C   0  0  0  0  0  0  0  0  0  4  0  0
   -0.1283    0.5142    1.8464 C   0  0  0  0  0  0  0  0  0  5  0  0
    0.3809    0.1334    2.7116 H   0  0  0  0  0  0  0  0  0 49  0  0
   -1.4328    0.1227    1.5452 C   0  0  0  0  0  0  0  0  0  6  0  0
   -1.9461   -0.5608    2.2000 H   0  0  0  0  0  0  0  0  0 48  0  0
   -2.0558    0.5975    0.4124 C   0  0  0  0  0  0  0  0  0  7  0  0
   -3.7191    0.0914   -0.1171 S   0  0  1  0  0  6  0  0  0 17  0  0
   -4.6411    1.0760    0.3732 O   0  0  0  0  0  0  0  0  0 18  0  0
   -3.6504   -0.0925   -1.5562 O   0  0  0  0  0  0  0  0  0 19  0  0
   -4.1455   -1.5441    0.6246 C   0  0  1  0  0  0  0  0  0 20  0  0
   -5.6577   -1.6246    0.7702 C   0  0  0  0  0  0  0  0  0 21  0  0
   -6.1251   -1.7167   -0.1948 H   0  0  0  0  0  0  0  0  0 22  0  0
   -5.9274   -2.4885    1.3747 H   0  0  0  0  0  0  0  0  0 23  0  0
   -6.0126   -0.7232    1.2503 H   0  0  0  0  0  0  0  0  0 24  0  0
   -3.5587   -2.6251   -0.2691 C   0  0  0  0  0  0  0  0  0 25  0  0
   -2.0458   -2.5964   -0.1515 C   0  0  0  0  0  0  0  0  0 26  0  0
   -1.4822   -3.1928    0.7540 O   0  0  0  0  0  0  0  0  0 27  0  0
   -1.4257   -1.8539   -1.0998 N   0  0  0  0  0  0  0  0  0 28  0  0
   -0.0820   -1.4553   -1.1644 C   0  0  0  0  0  0  0  0  0 29  0  0
    0.8573   -1.8448   -0.2132 C   0  0  0  0  0  0  0  0  0 30  0  0
    0.5508   -2.4798    0.5919 H   0  0  0  0  0  0  0  0  0 43  0  0
    2.1752   -1.4112   -0.3136 C   0  0  0  0  0  0  0  0  0 31  0  0
    2.8741   -1.6960    0.4491 H   0  0  0  0  0  0  0  0  0 42  0  0
    2.5345   -0.5889   -1.3729 C   0  0  0  0  0  0  0  0  0 32  0  0
    3.8317   -0.1057   -1.5815 O   0  0  0  0  0  0  0  0  0 37  0  0
    4.8603   -0.6225   -0.8972 C   0  0  2  0  0  0  0  0  0 38  0  0
    4.8665   -0.3162    0.4009 F   0  0  0  0  0  0  0  0  0 39  0  0
    5.9909   -0.1229   -1.4068 F   0  0  0  0  0  0  0  0  0 40  0  0
    4.9796   -1.9647   -0.9734 F   0  0  0  0  0  0  0  0  0 41  0  0
    1.6076   -0.2162   -2.3257 C   0  0  0  0  0  0  0  0  0 33  0  0
    1.9296    0.4016   -3.1448 H   0  0  0  0  0  0  0  0  0 36  0  0
    0.3019   -0.6374   -2.2186 C   0  0  0  0  0  0  0  0  0 34  0  0
   -0.4187   -0.3343   -2.9523 H   0  0  0  0  0  0  0  0  0 35  0  0
   -2.0505   -1.3700   -1.7485 H   0  0  0  0  0  0  0  0  0 44  0  0
   -3.8642   -2.4530   -1.3114 H   0  0  0  0  0  0  0  0  0 45  0  0
   -3.9153   -3.6038    0.0450 H   0  0  0  0  0  0  0  0  0 46  0  0
   -3.6790   -1.5509    1.6170 H   0  0  0  0  0  0  0  0  0 47  0  0
   -1.4573    1.5212   -0.4244 C   0  0  0  0  0  0  0  0  0  8  0  0
   -1.9769    1.8993   -1.2896 H   0  0  0  0  0  0  0  0  0 16  0  0
   -0.1710    1.9353   -0.1137 C   0  0  0  0  0  0  0  0  0  9  0  0
    0.6938    2.9200   -0.8311 C   0  0  0  0  0  0  0  0  0 10  0  0
    0.2370    3.9003   -0.8921 H   0  0  0  0  0  0  0  0  0 11  0  0
    0.8957    2.5825   -1.8525 H   0  0  0  0  0  0  0  0  0 12  0  0
    1.9864    2.9333    0.0167 C   0  0  0  0  0  0  0  0  0 13  0  0
    2.8569    2.6721   -0.5980 H   0  0  0  0  0  0  0  0  0 14  0  0
    2.1545    3.9099    0.4855 H   0  0  0  0  0  0  0  0  0 15  0  0
    4.7811    1.7727    2.4931 H   0  0  0  0  0  0  0  0  0 50  0  0
    4.5107    1.9732    0.7604 H   0  0  0  0  0  0  0  0  0 51  0  0
    4.0036    3.2421    1.8901 H   0  0  0  0  0  0  0  0  0 52  0  0
  1  2  1  0
  2  3  2  0
  2  4  1  0
  4  5  1  0
  5  6  4  0
  6  7  1  0
  6  8  4  0
  8  9  1  0
  8 10  4  0
 11 10  1  1
 11 12  2  0
 11 13  2  0
 11 14  1  0
 14 15  1  0
 15 16  1  0
 15 17  1  0
 15 18  1  0
 14 19  1  0
 19 20  1  0
 20 21  2  0
 20 22  1  0
 22 23  1  0
 23 24  4  0
 24 25  1  0
 24 26  4  0
 26 27  1  0
 26 28  4  0
 28 29  1  0
 29 30  1  0
 30 31  1  1
 30 32  1  0
 30 33  1  0
 28 34  4  0
 34 35  1  0
 34 36  4  0
 36 37  1  0
 22 38  1  0
 19 39  1  0
 19 40  1  0
 14 41  1  1
 10 42  4  0
 42 43  1  0
 42 44  4  0
 44 45  1  0
 45 46  1  0
 45 47  1  0
 45 48  1  0
 48 49  1  0
 48 50  1  0
  1 51  1  0
  1 52  1  0
  1 53  1  0
 48  4  1  0
 44  5  4  0
 36 23  4  0
M  END
>  <sample_id>  (470)
train::CC(=O)N1CCc2cc(S(=O)(=O)C(C)CC(=O)Nc3ccc(OC(F)(F)F)cc3)ccc21__gen0001

>  <partition>  (470)
BAT_EXTERNAL_CONFIRM

>  <method>  (470)
BA_seed193

>  <candidate>  (470)
primary

$$$$
train::CC(=O)N1CCc2cc(S(=O)(=O)C(C)CC(=O)Nc3ccc(OC(F)(F)F)cc3)ccc21__gen0002
     RDKit          3D

 53 55  0  0  0  0  0  0  0  0999 V2000
    3.2554    2.3311    0.4279 C   0  0  0  0  0  0  0  0  0  0  0  0
    2.6808    1.5727    1.5968 C   0  0  0  0  0  0  0  0  0  1  0  0
    3.3658    1.1915    2.5157 O   0  0  0  0  0  0  0  0  0  2  0  0
    1.3323    1.3209    1.6203 N   0  0  0  0  0  0  0  0  0  3  0  0
    0.3100    1.4325    0.6771 C   0  0  0  0  0  0  0  0  0  4  0  0
    0.3901    1.7850   -0.6667 C   0  0  0  0  0  0  0  0  0  5  0  0
    1.3306    1.9680   -1.1741 H   0  0  0  0  0  0  0  0  0 49  0  0
   -0.7798    1.8330   -1.4039 C   0  0  0  0  0  0  0  0  0  6  0  0
   -0.7762    2.0600   -2.4512 H   0  0  0  0  0  0  0  0  0 48  0  0
   -1.9953    1.5577   -0.7963 C   0  0  0  0  0  0  0  0  0  7  0  0
   -3.4700    1.4842   -1.8251 S   0  0  2  0  0  6  0  0  0 17  0  0
   -3.1097    1.8431   -3.1778 O   0  0  0  0  0  0  0  0  0 18  0  0
   -4.5263    2.2430   -1.1946 O   0  0  0  0  0  0  0  0  0 19  0  0
   -3.9470   -0.2737   -1.8243 C   0  0  1  0  0  0  0  0  0 20  0  0
   -5.2120   -0.4168   -2.6542 C   0  0  0  0  0  0  0  0  0 21  0  0
   -4.9877   -0.2706   -3.7040 H   0  0  0  0  0  0  0  0  0 22  0  0
   -5.6387   -1.4037   -2.5187 H   0  0  0  0  0  0  0  0  0 23  0  0
   -5.9305    0.3327   -2.3316 H   0  0  0  0  0  0  0  0  0 24  0  0
   -2.7449   -1.0554   -2.3691 C   0  0  0  0  0  0  0  0  0 25  0  0
   -1.7617   -1.3668   -1.2746 C   0  0  0  0  0  0  0  0  0 26  0  0
   -2.1082   -1.6714   -0.1604 O   0  0  0  0  0  0  0  0  0 27  0  0
   -0.4347   -1.2685   -1.6607 N   0  0  0  0  0  0  0  0  0 28  0  0
    0.6995   -1.4347   -0.8691 C   0  0  0  0  0  0  0  0  0 29  0  0
    0.6567   -1.9454    0.4266 C   0  0  0  0  0  0  0  0  0 30  0  0
   -0.2897   -2.2498    0.8413 H   0  0  0  0  0  0  0  0  0 43  0  0
    1.8130   -2.0708    1.1618 C   0  0  0  0  0  0  0  0  0 31  0  0
    1.7678   -2.4963    2.1516 H   0  0  0  0  0  0  0  0  0 42  0  0
    3.0331   -1.6823    0.6200 C   0  0  0  0  0  0  0  0  0 32  0  0
    4.2519   -1.7969    1.2879 O   0  0  0  0  0  0  0  0  0 37  0  0
    4.3121   -2.1414    2.5783 C   0  0  2  0  0  0  0  0  0 38  0  0
    3.8054   -3.3611    2.8252 F   0  0  0  0  0  0  0  0  0 39  0  0
    3.6979   -1.2997    3.4175 F   0  0  0  0  0  0  0  0  0 40  0  0
    5.5735   -2.1892    2.9470 F   0  0  0  0  0  0  0  0  0 41  0  0
    3.0875   -1.1837   -0.6744 C   0  0  0  0  0  0  0  0  0 33  0  0
    4.0437   -0.9057   -1.0778 H   0  0  0  0  0  0  0  0  0 36  0  0
    1.9319   -1.0759   -1.4066 C   0  0  0  0  0  0  0  0  0 34  0  0
    1.9863   -0.6857   -2.4151 H   0  0  0  0  0  0  0  0  0 35  0  0
   -0.2742   -0.9717   -2.6106 H   0  0  0  0  0  0  0  0  0 44  0  0
   -3.0974   -1.9998   -2.7929 H   0  0  0  0  0  0  0  0  0 45  0  0
   -2.2917   -0.4759   -3.1753 H   0  0  0  0  0  0  0  0  0 46  0  0
   -4.1431   -0.5255   -0.7785 H   0  0  0  0  0  0  0  0  0 47  0  0
   -2.0860    1.2513    0.5384 C   0  0  0  0  0  0  0  0  0  8  0  0
   -3.0519    1.0616    0.9948 H   0  0  0  0  0  0  0  0  0 16  0  0
   -0.9155    1.1788    1.2735 C   0  0  0  0  0  0  0  0  0  9  0  0
   -0.7308    0.7967    2.7109 C   0  0  0  0  0  0  0  0  0 10  0  0
   -1.1555   -0.1794    2.9164 H   0  0  0  0  0  0  0  0  0 11  0  0
   -1.2251    1.5244    3.3645 H   0  0  0  0  0  0  0  0  0 12  0  0
    0.7900    0.8081    2.8843 C   0  0  0  0  0  0  0  0  0 13  0  0
    1.1233    1.4482    3.6971 H   0  0  0  0  0  0  0  0  0 14  0  0
    1.1997   -0.1896    3.0586 H   0  0  0  0  0  0  0  0  0 15  0  0
    3.3760    1.6878   -0.4315 H   0  0  0  0  0  0  0  0  0 50  0  0
    2.6321    3.1851    0.1587 H   0  0  0  0  0  0  0  0  0 51  0  0
    4.2371    2.6898    0.7270 H   0  0  0  0  0  0  0  0  0 52  0  0
  1  2  1  0
  2  3  2  0
  2  4  1  0
  4  5  1  0
  5  6  4  0
  6  7  1  0
  6  8  4  0
  8  9  1  0
  8 10  4  0
 11 10  1  6
 11 12  2  0
 11 13  2  0
 11 14  1  0
 14 15  1  0
 15 16  1  0
 15 17  1  0
 15 18  1  0
 14 19  1  0
 19 20  1  0
 20 21  2  0
 20 22  1  0
 22 23  1  0
 23 24  4  0
 24 25  1  0
 24 26  4  0
 26 27  1  0
 26 28  4  0
 28 29  1  0
 29 30  1  0
 30 31  1  6
 30 32  1  0
 30 33  1  0
 28 34  4  0
 34 35  1  0
 34 36  4  0
 36 37  1  0
 22 38  1  0
 19 39  1  0
 19 40  1  0
 14 41  1  1
 10 42  4  0
 42 43  1  0
 42 44  4  0
 44 45  1  0
 45 46  1  0
 45 47  1  0
 45 48  1  0
 48 49  1  0
 48 50  1  0
  1 51  1  0
  1 52  1  0
  1 53  1  0
 48  4  1  0
 44  5  4  0
 36 23  4  0
M  END
>  <sample_id>  (471)
train::CC(=O)N1CCc2cc(S(=O)(=O)C(C)CC(=O)Nc3ccc(OC(F)(F)F)cc3)ccc21__gen0002

>  <partition>  (471)
BAT_EXTERNAL_CONFIRM

>  <method>  (471)
BA_seed193

>  <candidate>  (471)
primary

$$$$
train::NNC(=O)c1ccc(Cn2cccn2)o1__gen0000
     RDKit          3D

 25 26  0  0  0  0  0  0  0  0999 V2000
    4.8156    1.7412   -0.7521 N   0  0  0  0  0  0  0  0  0  0  0  0
    3.5488    1.1948   -0.5253 N   0  0  0  0  0  0  0  0  0  1  0  0
    2.9159    0.4673   -1.4735 C   0  0  0  0  0  0  0  0  0  2  0  0
    3.3966    0.3040   -2.5805 O   0  0  0  0  0  0  0  0  0  3  0  0
    1.6325   -0.1063   -1.0395 C   0  0  0  0  0  0  0  0  0  4  0  0
    0.7562   -0.9069   -1.7281 C   0  0  0  0  0  0  0  0  0  5  0  0
    0.8724   -1.2431   -2.7324 H   0  0  0  0  0  0  0  0  0 21  0  0
   -0.3065   -1.1722   -0.8371 C   0  0  0  0  0  0  0  0  0  6  0  0
   -1.1803   -1.7671   -1.0259 H   0  0  0  0  0  0  0  0  0 20  0  0
   -0.0114   -0.5301    0.3326 C   0  0  0  0  0  0  0  0  0  7  0  0
   -0.7583   -0.4356    1.6157 C   0  0  0  0  0  0  0  0  0  9  0  0
   -2.1853   -0.4084    1.3840 N   0  0  0  0  0  0  0  0  0 10  0  0
   -2.8928    0.4929    0.6713 C   0  0  0  0  0  0  0  0  0 11  0  0
   -2.4280    1.3372    0.2132 H   0  0  0  0  0  0  0  0  0 17  0  0
   -4.2055    0.0885    0.7214 C   0  0  0  0  0  0  0  0  0 12  0  0
   -5.0527    0.5608    0.2698 H   0  0  0  0  0  0  0  0  0 16  0  0
   -4.1830   -1.0972    1.4772 C   0  0  0  0  0  0  0  0  0 13  0  0
   -5.0030   -1.7333    1.7343 H   0  0  0  0  0  0  0  0  0 15  0  0
   -2.9581   -1.3825    1.8684 N   0  0  0  0  0  0  0  0  0 14  0  0
   -0.4485    0.4690    2.1482 H   0  0  0  0  0  0  0  0  0 18  0  0
   -0.5701   -1.3015    2.2470 H   0  0  0  0  0  0  0  0  0 19  0  0
    1.1536    0.1273    0.2083 O   0  0  0  0  0  0  0  0  0  8  0  0
    3.1706    1.3195    0.4006 H   0  0  0  0  0  0  0  0  0 22  0  0
    4.7504    2.7265   -1.0192 H   0  0  0  0  0  0  0  0  0 23  0  0
    5.1710    1.2550   -1.5786 H   0  0  0  0  0  0  0  0  0 24  0  0
  1  2  1  0
  2  3  1  0
  3  4  2  0
  3  5  1  0
  5  6  4  0
  6  7  1  0
  6  8  4  0
  8  9  1  0
  8 10  4  0
 10 11  1  0
 11 12  1  0
 12 13  4  0
 13 14  1  0
 13 15  4  0
 15 16  1  0
 15 17  4  0
 17 18  1  0
 17 19  4  0
 11 20  1  0
 11 21  1  0
 10 22  4  0
  2 23  1  0
  1 24  1  0
  1 25  1  0
 22  5  4  0
 19 12  4  0
M  END
>  <sample_id>  (472)
train::NNC(=O)c1ccc(Cn2cccn2)o1__gen0000

>  <partition>  (472)
BAT_EXTERNAL_CONFIRM

>  <method>  (472)
BA_seed193

>  <candidate>  (472)
primary

$$$$
train::NNC(=O)c1ccc(Cn2cccn2)o1__gen0001
     RDKit          3D

 25 26  0  0  0  0  0  0  0  0999 V2000
   -2.1800   -1.8055    4.3195 N   0  0  0  0  0  0  0  0  0  0  0  0
   -1.5702   -1.2623    3.1771 N   0  0  0  0  0  0  0  0  0  1  0  0
   -2.0386   -0.1196    2.6041 C   0  0  0  0  0  0  0  0  0  2  0  0
   -3.0589    0.4231    2.9885 O   0  0  0  0  0  0  0  0  0  3  0  0
   -1.2252    0.3632    1.4918 C   0  0  0  0  0  0  0  0  0  4  0  0
   -1.4370    1.4170    0.6369 C   0  0  0  0  0  0  0  0  0  5  0  0
   -2.2778    2.0774    0.6594 H   0  0  0  0  0  0  0  0  0 21  0  0
   -0.3332    1.4521   -0.2443 C   0  0  0  0  0  0  0  0  0  6  0  0
   -0.1695    2.1340   -1.0430 H   0  0  0  0  0  0  0  0  0 20  0  0
    0.4704    0.4077    0.1198 C   0  0  0  0  0  0  0  0  0  7  0  0
    1.7666   -0.0830   -0.4543 C   0  0  0  0  0  0  0  0  0  9  0  0
    1.7505   -0.0504   -1.8959 N   0  0  0  0  0  0  0  0  0 10  0  0
    2.0716    0.9731   -2.6988 C   0  0  0  0  0  0  0  0  0 11  0  0
    2.4465    1.8985   -2.3205 H   0  0  0  0  0  0  0  0  0 17  0  0
    1.8428    0.5579   -3.9899 C   0  0  0  0  0  0  0  0  0 12  0  0
    1.9952    1.0935   -4.9033 H   0  0  0  0  0  0  0  0  0 16  0  0
    1.3705   -0.7645   -3.8446 C   0  0  0  0  0  0  0  0  0 13  0  0
    1.0770   -1.4468   -4.6197 H   0  0  0  0  0  0  0  0  0 15  0  0
    1.3131   -1.1106   -2.5731 N   0  0  0  0  0  0  0  0  0 14  0  0
    1.9329   -1.1149   -0.1356 H   0  0  0  0  0  0  0  0  0 18  0  0
    2.5917    0.5486   -0.0965 H   0  0  0  0  0  0  0  0  0 19  0  0
   -0.0711   -0.2578    1.1452 O   0  0  0  0  0  0  0  0  0  8  0  0
   -0.7043   -1.6907    2.8969 H   0  0  0  0  0  0  0  0  0 22  0  0
   -2.8056   -2.5703    4.0628 H   0  0  0  0  0  0  0  0  0 23  0  0
   -2.7571   -1.0695    4.7175 H   0  0  0  0  0  0  0  0  0 24  0  0
  1  2  1  0
  2  3  1  0
  3  4  2  0
  3  5  1  0
  5  6  4  0
  6  7  1  0
  6  8  4  0
  8  9  1  0
  8 10  4  0
 10 11  1  0
 11 12  1  0
 12 13  4  0
 13 14  1  0
 13 15  4  0
 15 16  1  0
 15 17  4  0
 17 18  1  0
 17 19  4  0
 11 20  1  0
 11 21  1  0
 10 22  4  0
  2 23  1  0
  1 24  1  0
  1 25  1  0
 22  5  4  0
 19 12  4  0
M  END
>  <sample_id>  (473)
train::NNC(=O)c1ccc(Cn2cccn2)o1__gen0001

>  <partition>  (473)
BAT_EXTERNAL_CONFIRM

>  <method>  (473)
BA_seed193

>  <candidate>  (473)
primary

$$$$
train::NNC(=O)c1ccc(Cn2cccn2)o1__gen0002
     RDKit          3D

 25 26  0  0  0  0  0  0  0  0999 V2000
   -1.1422    1.3209    4.1275 N   0  0  0  0  0  0  0  0  0  0  0  0
   -0.4617    0.7856    3.0103 N   0  0  0  0  0  0  0  0  0  1  0  0
    0.6741    1.3617    2.5327 C   0  0  0  0  0  0  0  0  0  2  0  0
    1.2188    2.2918    3.1025 O   0  0  0  0  0  0  0  0  0  3  0  0
    1.1657    0.7505    1.2924 C   0  0  0  0  0  0  0  0  0  4  0  0
    2.2758    1.0645    0.5496 C   0  0  0  0  0  0  0  0  0  5  0  0
    2.9858    1.8326    0.7707 H   0  0  0  0  0  0  0  0  0 21  0  0
    2.2790    0.1664   -0.5431 C   0  0  0  0  0  0  0  0  0  6  0  0
    3.0064    0.1203   -1.3286 H   0  0  0  0  0  0  0  0  0 20  0  0
    1.1775   -0.6270   -0.3887 C   0  0  0  0  0  0  0  0  0  7  0  0
    0.6126   -1.7207   -1.2438 C   0  0  0  0  0  0  0  0  0  9  0  0
   -0.5545   -1.2860   -1.9410 N   0  0  0  0  0  0  0  0  0 10  0  0
   -0.6321   -0.3953   -2.9465 C   0  0  0  0  0  0  0  0  0 11  0  0
    0.2421    0.0540   -3.3714 H   0  0  0  0  0  0  0  0  0 17  0  0
   -1.9618   -0.2483   -3.2578 C   0  0  0  0  0  0  0  0  0 12  0  0
   -2.4008    0.3683   -4.0111 H   0  0  0  0  0  0  0  0  0 16  0  0
   -2.6222   -1.1046   -2.3589 C   0  0  0  0  0  0  0  0  0 13  0  0
   -3.6795   -1.2798   -2.2593 H   0  0  0  0  0  0  0  0  0 15  0  0
   -1.7660   -1.7242   -1.5718 N   0  0  0  0  0  0  0  0  0 14  0  0
    0.3190   -2.5744   -0.6179 H   0  0  0  0  0  0  0  0  0 18  0  0
    1.3838   -2.0446   -1.9592 H   0  0  0  0  0  0  0  0  0 19  0  0
    0.4959   -0.2769    0.7189 O   0  0  0  0  0  0  0  0  0  8  0  0
   -0.9700    0.0841    2.4896 H   0  0  0  0  0  0  0  0  0 22  0  0
   -0.7791    2.2671    4.2345 H   0  0  0  0  0  0  0  0  0 23  0  0
   -0.8666    0.8141    4.9706 H   0  0  0  0  0  0  0  0  0 24  0  0
  1  2  1  0
  2  3  1  0
  3  4  2  0
  3  5  1  0
  5  6  4  0
  6  7  1  0
  6  8  4  0
  8  9  1  0
  8 10  4  0
 10 11  1  0
 11 12  1  0
 12 13  4  0
 13 14  1  0
 13 15  4  0
 15 16  1  0
 15 17  4  0
 17 18  1  0
 17 19  4  0
 11 20  1  0
 11 21  1  0
 10 22  4  0
  2 23  1  0
  1 24  1  0
  1 25  1  0
 22  5  4  0
 19 12  4  0
M  END
>  <sample_id>  (474)
train::NNC(=O)c1ccc(Cn2cccn2)o1__gen0002

>  <partition>  (474)
BAT_EXTERNAL_CONFIRM

>  <method>  (474)
BA_seed193

>  <candidate>  (474)
primary

$$$$
train::Cc1cc(C)nc(SCc2nnc(SCC(=O)N3CCCc4ccccc43)n2C)n1__gen0000
     RDKit          3D

 54 57  0  0  0  0  0  0  0  0999 V2000
   -2.8790    4.0895   -1.6731 C   0  0  0  0  0  0  0  0  0  0  0  0
   -2.2602    3.2924   -0.5738 C   0  0  0  0  0  0  0  0  0  1  0  0
   -3.1005    2.7643    0.3066 N   0  0  0  0  0  0  0  0  0  2  0  0
   -2.5685    2.0518    1.2828 C   0  0  0  0  0  0  0  0  0  3  0  0
   -3.7227    1.3899    2.4184 S   0  0  0  0  0  0  0  0  0 12  0  0
   -2.5988    0.5327    3.5888 C   0  0  0  0  0  0  0  0  0 13  0  0
   -1.8343   -0.5527    2.9400 C   0  0  0  0  0  0  0  0  0 14  0  0
   -0.5228   -0.6585    2.9764 N   0  0  0  0  0  0  0  0  0 15  0  0
   -0.1700   -1.7655    2.2621 N   0  0  0  0  0  0  0  0  0 16  0  0
   -1.2773   -2.2938    1.8205 C   0  0  0  0  0  0  0  0  0 17  0  0
   -1.3981   -3.7173    0.8575 S   0  0  0  0  0  0  0  0  0 23  0  0
    0.1521   -3.5016   -0.0800 C   0  0  0  0  0  0  0  0  0 24  0  0
   -0.0777   -2.3842   -1.1004 C   0  0  0  0  0  0  0  0  0 25  0  0
   -1.1637   -2.2753   -1.6206 O   0  0  0  0  0  0  0  0  0 26  0  0
    0.9812   -1.6183   -1.5315 N   0  0  0  0  0  0  0  0  0 27  0  0
    2.1293   -1.1849   -0.8313 C   0  0  0  0  0  0  0  0  0 28  0  0
    2.3131   -1.3905    0.5377 C   0  0  0  0  0  0  0  0  0 29  0  0
    1.5207   -1.7954    1.1523 H   0  0  0  0  0  0  0  0  0 46  0  0
    3.4720   -0.9554    1.2016 C   0  0  0  0  0  0  0  0  0 30  0  0
    3.5580   -1.1253    2.2620 H   0  0  0  0  0  0  0  0  0 45  0  0
    4.4908   -0.3764    0.4719 C   0  0  0  0  0  0  0  0  0 31  0  0
    5.3830   -0.0340    0.9830 H   0  0  0  0  0  0  0  0  0 44  0  0
    4.3093   -0.1534   -0.8870 C   0  0  0  0  0  0  0  0  0 32  0  0
    5.0826    0.3427   -1.4516 H   0  0  0  0  0  0  0  0  0 43  0  0
    3.1626   -0.5699   -1.5374 C   0  0  0  0  0  0  0  0  0 33  0  0
    3.0188   -0.2291   -2.9924 C   0  0  0  0  0  0  0  0  0 34  0  0
    3.4474   -1.0760   -3.5605 H   0  0  0  0  0  0  0  0  0 41  0  0
    3.5915    0.6443   -3.2642 H   0  0  0  0  0  0  0  0  0 42  0  0
    1.5571   -0.0281   -3.3486 C   0  0  0  0  0  0  0  0  0 35  0  0
    1.2061    0.8607   -2.8144 H   0  0  0  0  0  0  0  0  0 39  0  0
    1.3958    0.1300   -4.4116 H   0  0  0  0  0  0  0  0  0 40  0  0
    0.8007   -1.2846   -2.9283 C   0  0  0  0  0  0  0  0  0 36  0  0
    1.2054   -2.0873   -3.5594 H   0  0  0  0  0  0  0  0  0 37  0  0
   -0.2627   -1.1934   -3.1102 H   0  0  0  0  0  0  0  0  0 38  0  0
    0.9897   -3.3147    0.5874 H   0  0  0  0  0  0  0  0  0 47  0  0
    0.2908   -4.4440   -0.6010 H   0  0  0  0  0  0  0  0  0 48  0  0
   -2.3635   -1.5649    2.2253 N   0  0  0  0  0  0  0  0  0 18  0  0
   -3.7297   -1.8281    1.8769 C   0  0  0  0  0  0  0  0  0 19  0  0
   -4.3863   -1.3898    2.6314 H   0  0  0  0  0  0  0  0  0 20  0  0
   -3.9614   -1.4114    0.9013 H   0  0  0  0  0  0  0  0  0 21  0  0
   -3.8854   -2.9097    1.8577 H   0  0  0  0  0  0  0  0  0 22  0  0
   -1.9112    1.2758    3.9860 H   0  0  0  0  0  0  0  0  0 49  0  0
   -3.2351    0.1377    4.3750 H   0  0  0  0  0  0  0  0  0 50  0  0
   -1.2979    1.8114    1.4985 N   0  0  0  0  0  0  0  0  0  4  0  0
   -0.4275    2.3244    0.6353 C   0  0  0  0  0  0  0  0  0  5  0  0
    1.0152    2.0665    0.8682 C   0  0  0  0  0  0  0  0  0  8  0  0
    1.3303    2.5390    1.7872 H   0  0  0  0  0  0  0  0  0  9  0  0
    1.1688    0.9869    0.9839 H   0  0  0  0  0  0  0  0  0 10  0  0
    1.6180    2.4560    0.0552 H   0  0  0  0  0  0  0  0  0 11  0  0
   -0.8838    3.0759   -0.4582 C   0  0  0  0  0  0  0  0  0  6  0  0
   -0.1775    3.4987   -1.1603 H   0  0  0  0  0  0  0  0  0  7  0  0
   -3.3063    3.4103   -2.4069 H   0  0  0  0  0  0  0  0  0 51  0  0
   -3.6617    4.7131   -1.2672 H   0  0  0  0  0  0  0  0  0 52  0  0
   -2.1267    4.7202   -2.1609 H   0  0  0  0  0  0  0  0  0 53  0  0
  1  2  1  0
  2  3  4  0
  3  4  4  0
  4  5  1  0
  5  6  1  0
  6  7  1  0
  7  8  4  0
  8  9  4  0
  9 10  4  0
 10 11  1  0
 11 12  1  0
 12 13  1  0
 13 14  2  0
 13 15  1  0
 15 16  1  0
 16 17  4  0
 17 18  1  0
 17 19  4  0
 19 20  1  0
 19 21  4  0
 21 22  1  0
 21 23  4  0
 23 24  1  0
 23 25  4  0
 25 26  1  0
 26 27  1  0
 26 28  1  0
 26 29  1  0
 29 30  1  0
 29 31  1  0
 29 32  1  0
 32 33  1  0
 32 34  1  0
 12 35  1  0
 12 36  1  0
 10 37  4  0
 37 38  1  0
 38 39  1  0
 38 40  1  0
 38 41  1  0
  6 42  1  0
  6 43  1  0
  4 44  4  0
 44 45  4  0
 45 46  1  0
 46 47  1  0
 46 48  1  0
 46 49  1  0
 45 50  4  0
 50 51  1  0
  1 52  1  0
  1 53  1  0
  1 54  1  0
 50  2  4  0
 37  7  4  0
 32 15  1  0
 25 16  4  0
M  END
>  <sample_id>  (475)
train::Cc1cc(C)nc(SCc2nnc(SCC(=O)N3CCCc4ccccc43)n2C)n1__gen0000

>  <partition>  (475)
BAT_EXTERNAL_CONFIRM

>  <method>  (475)
BA_seed193

>  <candidate>  (475)
primary

$$$$
train::Cc1cc(C)nc(SCc2nnc(SCC(=O)N3CCCc4ccccc43)n2C)n1__gen0001
     RDKit          3D

 54 57  0  0  0  0  0  0  0  0999 V2000
   -6.9330   -1.8049   -0.3140 C   0  0  0  0  0  0  0  0  0  0  0  0
   -5.4937   -1.8629   -0.7111 C   0  0  0  0  0  0  0  0  0  1  0  0
   -5.0530   -0.9324   -1.5457 N   0  0  0  0  0  0  0  0  0  2  0  0
   -3.7728   -0.9774   -1.8860 C   0  0  0  0  0  0  0  0  0  3  0  0
   -3.2980    0.2675   -3.0104 S   0  0  0  0  0  0  0  0  0 12  0  0
   -1.4693   -0.0259   -3.0870 C   0  0  0  0  0  0  0  0  0 13  0  0
   -0.8734    0.1218   -1.7472 C   0  0  0  0  0  0  0  0  0 14  0  0
   -1.0490    1.1533   -0.9613 N   0  0  0  0  0  0  0  0  0 15  0  0
   -0.3782    0.9239    0.1822 N   0  0  0  0  0  0  0  0  0 16  0  0
    0.1907   -0.2440    0.0695 C   0  0  0  0  0  0  0  0  0 17  0  0
    1.1490   -0.9954    1.3174 S   0  0  0  0  0  0  0  0  0 23  0  0
    2.7708   -1.0915    0.4748 C   0  0  0  0  0  0  0  0  0 24  0  0
    2.9478    0.1203   -0.4439 C   0  0  0  0  0  0  0  0  0 25  0  0
    2.8315   -0.0463   -1.6429 O   0  0  0  0  0  0  0  0  0 26  0  0
    3.1677    1.3495    0.1001 N   0  0  0  0  0  0  0  0  0 27  0  0
    3.2989    1.6776    1.4617 C   0  0  0  0  0  0  0  0  0 28  0  0
    4.1270    0.9342    2.3083 C   0  0  0  0  0  0  0  0  0 29  0  0
    4.6753    0.0921    1.9200 H   0  0  0  0  0  0  0  0  0 46  0  0
    4.2841    1.2903    3.6286 C   0  0  0  0  0  0  0  0  0 30  0  0
    4.9176    0.7047    4.2692 H   0  0  0  0  0  0  0  0  0 45  0  0
    3.6298    2.3938    4.1365 C   0  0  0  0  0  0  0  0  0 31  0  0
    3.6995    2.6436    5.1827 H   0  0  0  0  0  0  0  0  0 44  0  0
    2.8539    3.1698    3.3039 C   0  0  0  0  0  0  0  0  0 32  0  0
    2.3474    4.0498    3.6729 H   0  0  0  0  0  0  0  0  0 43  0  0
    2.6862    2.8326    1.9665 C   0  0  0  0  0  0  0  0  0 33  0  0
    1.9430    3.7864    1.0746 C   0  0  0  0  0  0  0  0  0 34  0  0
    2.5002    4.7274    1.0540 H   0  0  0  0  0  0  0  0  0 41  0  0
    0.9595    3.9994    1.5092 H   0  0  0  0  0  0  0  0  0 42  0  0
    1.7785    3.2834   -0.3532 C   0  0  0  0  0  0  0  0  0 35  0  0
    0.9028    2.6641   -0.3927 H   0  0  0  0  0  0  0  0  0 39  0  0
    1.6229    4.1297   -1.0187 H   0  0  0  0  0  0  0  0  0 40  0  0
    3.0150    2.5009   -0.7655 C   0  0  0  0  0  0  0  0  0 36  0  0
    2.9358    2.1607   -1.7956 H   0  0  0  0  0  0  0  0  0 37  0  0
    3.9221    3.1168   -0.6702 H   0  0  0  0  0  0  0  0  0 38  0  0
    2.7946   -1.9960   -0.1363 H   0  0  0  0  0  0  0  0  0 47  0  0
    3.5236   -1.1666    1.2631 H   0  0  0  0  0  0  0  0  0 48  0  0
   -0.0913   -0.8027   -1.1539 N   0  0  0  0  0  0  0  0  0 18  0  0
    0.3664   -2.0538   -1.6559 C   0  0  0  0  0  0  0  0  0 19  0  0
    0.5624   -2.7358   -0.8270 H   0  0  0  0  0  0  0  0  0 20  0  0
    1.2759   -1.9216   -2.2482 H   0  0  0  0  0  0  0  0  0 21  0  0
   -0.4046   -2.4738   -2.3045 H   0  0  0  0  0  0  0  0  0 22  0  0
   -1.3240   -1.0150   -3.5056 H   0  0  0  0  0  0  0  0  0 49  0  0
   -1.1239    0.7401   -3.7810 H   0  0  0  0  0  0  0  0  0 50  0  0
   -2.8895   -1.8883   -1.4933 N   0  0  0  0  0  0  0  0  0  4  0  0
   -3.3274   -2.8179   -0.6390 C   0  0  0  0  0  0  0  0  0  5  0  0
   -2.3555   -3.8605   -0.1873 C   0  0  0  0  0  0  0  0  0  8  0  0
   -1.3766   -3.4093   -0.0291 H   0  0  0  0  0  0  0  0  0  9  0  0
   -2.2618   -4.6252   -0.9475 H   0  0  0  0  0  0  0  0  0 10  0  0
   -2.6892   -4.3073    0.7464 H   0  0  0  0  0  0  0  0  0 11  0  0
   -4.6498   -2.8479   -0.2220 C   0  0  0  0  0  0  0  0  0  6  0  0
   -4.9951   -3.5978    0.4751 H   0  0  0  0  0  0  0  0  0  7  0  0
   -7.0230   -1.4442    0.7083 H   0  0  0  0  0  0  0  0  0 51  0  0
   -7.4552   -1.1072   -0.9703 H   0  0  0  0  0  0  0  0  0 52  0  0
   -7.3929   -2.7822   -0.3787 H   0  0  0  0  0  0  0  0  0 53  0  0
  1  2  1  0
  2  3  4  0
  3  4  4  0
  4  5  1  0
  5  6  1  0
  6  7  1  0
  7  8  4  0
  8  9  4  0
  9 10  4  0
 10 11  1  0
 11 12  1  0
 12 13  1  0
 13 14  2  0
 13 15  1  0
 15 16  1  0
 16 17  4  0
 17 18  1  0
 17 19  4  0
 19 20  1  0
 19 21  4  0
 21 22  1  0
 21 23  4  0
 23 24  1  0
 23 25  4  0
 25 26  1  0
 26 27  1  0
 26 28  1  0
 26 29  1  0
 29 30  1  0
 29 31  1  0
 29 32  1  0
 32 33  1  0
 32 34  1  0
 12 35  1  0
 12 36  1  0
 10 37  4  0
 37 38  1  0
 38 39  1  0
 38 40  1  0
 38 41  1  0
  6 42  1  0
  6 43  1  0
  4 44  4  0
 44 45  4  0
 45 46  1  0
 46 47  1  0
 46 48  1  0
 46 49  1  0
 45 50  4  0
 50 51  1  0
  1 52  1  0
  1 53  1  0
  1 54  1  0
 50  2  4  0
 37  7  4  0
 32 15  1  0
 25 16  4  0
M  END
>  <sample_id>  (476)
train::Cc1cc(C)nc(SCc2nnc(SCC(=O)N3CCCc4ccccc43)n2C)n1__gen0001

>  <partition>  (476)
BAT_EXTERNAL_CONFIRM

>  <method>  (476)
BA_seed193

>  <candidate>  (476)
primary

$$$$
train::Cc1cc(C)nc(SCc2nnc(SCC(=O)N3CCCc4ccccc43)n2C)n1__gen0002
     RDKit          3D

 54 57  0  0  0  0  0  0  0  0999 V2000
   -0.4098   -0.4356    3.9402 C   0  0  0  0  0  0  0  0  0  0  0  0
   -0.0246   -1.0828    2.6758 C   0  0  0  0  0  0  0  0  0  1  0  0
    1.2708   -1.2346    2.4223 N   0  0  0  0  0  0  0  0  0  2  0  0
    1.6107   -1.8169    1.2792 C   0  0  0  0  0  0  0  0  0  3  0  0
    3.3530   -1.9700    1.0688 S   0  0  0  0  0  0  0  0  0 12  0  0
    3.4827   -2.4087   -0.7076 C   0  0  0  0  0  0  0  0  0 13  0  0
    2.6741   -1.5012   -1.5266 C   0  0  0  0  0  0  0  0  0 14  0  0
    2.7104   -0.1872   -1.5121 N   0  0  0  0  0  0  0  0  0 15  0  0
    1.7640    0.2985   -2.2895 N   0  0  0  0  0  0  0  0  0 16  0  0
    1.1452   -0.7207   -2.8397 C   0  0  0  0  0  0  0  0  0 17  0  0
   -0.2139   -0.6180   -3.8639 S   0  0  0  0  0  0  0  0  0 23  0  0
   -0.7725    1.0584   -3.3909 C   0  0  0  0  0  0  0  0  0 24  0  0
   -1.2841    1.0325   -1.9429 C   0  0  0  0  0  0  0  0  0 25  0  0
   -2.1357    0.2071   -1.6718 O   0  0  0  0  0  0  0  0  0 26  0  0
   -0.7661    1.8985   -1.0309 N   0  0  0  0  0  0  0  0  0 27  0  0
   -1.4275    2.0854    0.2086 C   0  0  0  0  0  0  0  0  0 28  0  0
   -2.8257    2.0972    0.2761 C   0  0  0  0  0  0  0  0  0 29  0  0
   -3.3941    1.8988   -0.6150 H   0  0  0  0  0  0  0  0  0 46  0  0
   -3.4726    2.3044    1.4719 C   0  0  0  0  0  0  0  0  0 30  0  0
   -4.5502    2.3005    1.5228 H   0  0  0  0  0  0  0  0  0 45  0  0
   -2.7496    2.5511    2.6254 C   0  0  0  0  0  0  0  0  0 31  0  0
   -3.2448    2.7281    3.5654 H   0  0  0  0  0  0  0  0  0 44  0  0
   -1.3736    2.5900    2.5657 C   0  0  0  0  0  0  0  0  0 32  0  0
   -0.7792    2.8122    3.4503 H   0  0  0  0  0  0  0  0  0 43  0  0
   -0.6919    2.3705    1.3740 C   0  0  0  0  0  0  0  0  0 33  0  0
    0.8127    2.4367    1.3842 C   0  0  0  0  0  0  0  0  0 34  0  0
    1.1048    3.4848    1.5072 H   0  0  0  0  0  0  0  0  0 41  0  0
    1.2147    1.8616    2.2044 H   0  0  0  0  0  0  0  0  0 42  0  0
    1.3665    1.9416    0.0853 C   0  0  0  0  0  0  0  0  0 35  0  0
    1.2657    0.8567    0.1206 H   0  0  0  0  0  0  0  0  0 39  0  0
    2.4052    2.2230   -0.0760 H   0  0  0  0  0  0  0  0  0 40  0  0
    0.5432    2.5019   -1.0708 C   0  0  0  0  0  0  0  0  0 36  0  0
    1.0475    2.2783   -2.0138 H   0  0  0  0  0  0  0  0  0 37  0  0
    0.4503    3.5873   -0.9835 H   0  0  0  0  0  0  0  0  0 38  0  0
   -1.6184    1.2753   -4.0402 H   0  0  0  0  0  0  0  0  0 47  0  0
    0.0435    1.7474   -3.5782 H   0  0  0  0  0  0  0  0  0 48  0  0
    1.6871   -1.8952   -2.3890 N   0  0  0  0  0  0  0  0  0 18  0  0
    1.3127   -3.2164   -2.7667 C   0  0  0  0  0  0  0  0  0 19  0  0
    2.0219   -3.6432   -3.4689 H   0  0  0  0  0  0  0  0  0 20  0  0
    0.3230   -3.1755   -3.2277 H   0  0  0  0  0  0  0  0  0 21  0  0
    1.2507   -3.8431   -1.8644 H   0  0  0  0  0  0  0  0  0 22  0  0
    4.5490   -2.2831   -0.9236 H   0  0  0  0  0  0  0  0  0 49  0  0
    3.1827   -3.4452   -0.8297 H   0  0  0  0  0  0  0  0  0 50  0  0
    0.7826   -2.2750    0.3688 N   0  0  0  0  0  0  0  0  0  4  0  0
   -0.5241   -2.1115    0.5844 C   0  0  0  0  0  0  0  0  0  5  0  0
   -1.4656   -2.6308   -0.4406 C   0  0  0  0  0  0  0  0  0  8  0  0
   -1.7771   -1.8170   -1.0883 H   0  0  0  0  0  0  0  0  0  9  0  0
   -0.9873   -3.4199   -1.0254 H   0  0  0  0  0  0  0  0  0 10  0  0
   -2.3595   -3.0501    0.0290 H   0  0  0  0  0  0  0  0  0 11  0  0
   -0.9679   -1.5033    1.7434 C   0  0  0  0  0  0  0  0  0  6  0  0
   -2.0238   -1.3656    1.9207 H   0  0  0  0  0  0  0  0  0  7  0  0
   -1.3169   -0.8963    4.3614 H   0  0  0  0  0  0  0  0  0 51  0  0
   -0.6115    0.6382    3.7640 H   0  0  0  0  0  0  0  0  0 52  0  0
    0.3935   -0.5193    4.6575 H   0  0  0  0  0  0  0  0  0 53  0  0
  1  2  1  0
  2  3  4  0
  3  4  4  0
  4  5  1  0
  5  6  1  0
  6  7  1  0
  7  8  4  0
  8  9  4  0
  9 10  4  0
 10 11  1  0
 11 12  1  0
 12 13  1  0
 13 14  2  0
 13 15  1  0
 15 16  1  0
 16 17  4  0
 17 18  1  0
 17 19  4  0
 19 20  1  0
 19 21  4  0
 21 22  1  0
 21 23  4  0
 23 24  1  0
 23 25  4  0
 25 26  1  0
 26 27  1  0
 26 28  1  0
 26 29  1  0
 29 30  1  0
 29 31  1  0
 29 32  1  0
 32 33  1  0
 32 34  1  0
 12 35  1  0
 12 36  1  0
 10 37  4  0
 37 38  1  0
 38 39  1  0
 38 40  1  0
 38 41  1  0
  6 42  1  0
  6 43  1  0
  4 44  4  0
 44 45  4  0
 45 46  1  0
 46 47  1  0
 46 48  1  0
 46 49  1  0
 45 50  4  0
 50 51  1  0
  1 52  1  0
  1 53  1  0
  1 54  1  0
 50  2  4  0
 37  7  4  0
 32 15  1  0
 25 16  4  0
M  END
>  <sample_id>  (477)
train::Cc1cc(C)nc(SCc2nnc(SCC(=O)N3CCCc4ccccc43)n2C)n1__gen0002

>  <partition>  (477)
BAT_EXTERNAL_CONFIRM

>  <method>  (477)
BA_seed193

>  <candidate>  (477)
primary

$$$$
train::CCOC(=O)C1CCN(CCC(=O)Nc2cc(C)ccc2C)CC1__gen0000
     RDKit          3D

 52 53  0  0  0  0  0  0  0  0999 V2000
    3.2962   -4.9322    3.9176 C   0  0  0  0  0  0  0  0  0  0  0  0
    1.8599   -4.6130    3.5148 C   0  0  0  0  0  0  0  0  0  1  0  0
    1.5407   -5.2784    2.7119 H   0  0  0  0  0  0  0  0  0  2  0  0
    1.1813   -4.6895    4.3661 H   0  0  0  0  0  0  0  0  0  3  0  0
    1.7403   -3.2573    3.0656 O   0  0  0  0  0  0  0  0  0  4  0  0
    2.0750   -3.0093    1.8026 C   0  0  0  0  0  0  0  0  0  5  0  0
    2.4349   -3.8563    1.0224 O   0  0  0  0  0  0  0  0  0  6  0  0
    1.9444   -1.5294    1.4861 C   0  0  2  0  0  0  0  0  0  7  0  0
    2.7497   -1.0346    2.0431 H   0  0  0  0  0  0  0  0  0 48  0  0
    0.5979   -0.9542    1.9420 C   0  0  0  0  0  0  0  0  0  8  0  0
    0.4191   -1.2084    2.9812 H   0  0  0  0  0  0  0  0  0 46  0  0
    0.6106    0.1341    1.8350 H   0  0  0  0  0  0  0  0  0 47  0  0
   -0.5236   -1.5099    1.0842 C   0  0  0  0  0  0  0  0  0  9  0  0
   -1.4812   -1.0921    1.4141 H   0  0  0  0  0  0  0  0  0 44  0  0
   -0.5627   -2.6035    1.2058 H   0  0  0  0  0  0  0  0  0 45  0  0
   -0.3308   -1.1534   -0.3109 N   0  0  0  0  0  0  0  0  0 10  0  0
   -1.4552   -1.5946   -1.1406 C   0  0  0  0  0  0  0  0  0 17  0  0
   -2.7501   -0.8143   -0.9039 C   0  0  0  0  0  0  0  0  0 18  0  0
   -2.7386    0.6079   -1.4734 C   0  0  0  0  0  0  0  0  0 19  0  0
   -3.6971    1.0466   -2.0800 O   0  0  0  0  0  0  0  0  0 20  0  0
   -1.6120    1.2964   -1.1537 N   0  0  0  0  0  0  0  0  0 21  0  0
   -1.3167    2.6281   -1.4769 C   0  0  0  0  0  0  0  0  0 22  0  0
   -2.2936    3.5163   -1.9166 C   0  0  0  0  0  0  0  0  0 23  0  0
   -3.3041    3.1649   -2.0370 H   0  0  0  0  0  0  0  0  0 38  0  0
   -1.9878    4.8334   -2.2165 C   0  0  0  0  0  0  0  0  0 24  0  0
   -3.0493    5.7812   -2.6916 C   0  0  0  0  0  0  0  0  0 34  0  0
   -2.8349    6.0863   -3.7097 H   0  0  0  0  0  0  0  0  0 35  0  0
   -3.0688    6.6708   -2.0669 H   0  0  0  0  0  0  0  0  0 36  0  0
   -4.0280    5.3096   -2.6660 H   0  0  0  0  0  0  0  0  0 37  0  0
   -0.6817    5.2774   -2.0497 C   0  0  0  0  0  0  0  0  0 25  0  0
   -0.4382    6.3086   -2.2655 H   0  0  0  0  0  0  0  0  0 33  0  0
    0.2883    4.4072   -1.5921 C   0  0  0  0  0  0  0  0  0 26  0  0
    1.2960    4.7769   -1.4605 H   0  0  0  0  0  0  0  0  0 32  0  0
    0.0003    3.0839   -1.2961 C   0  0  0  0  0  0  0  0  0 27  0  0
    1.0745    2.1655   -0.8060 C   0  0  0  0  0  0  0  0  0 28  0  0
    0.8513    1.8050    0.2001 H   0  0  0  0  0  0  0  0  0 29  0  0
    1.2168    1.3162   -1.4785 H   0  0  0  0  0  0  0  0  0 30  0  0
    2.0224    2.6939   -0.7475 H   0  0  0  0  0  0  0  0  0 31  0  0
   -0.8685    0.7348   -0.7430 H   0  0  0  0  0  0  0  0  0 39  0  0
   -2.9658   -0.7366    0.1570 H   0  0  0  0  0  0  0  0  0 40  0  0
   -3.5681   -1.3459   -1.3900 H   0  0  0  0  0  0  0  0  0 41  0  0
   -1.1522   -1.4633   -2.1888 H   0  0  0  0  0  0  0  0  0 42  0  0
   -1.6601   -2.6643   -0.9880 H   0  0  0  0  0  0  0  0  0 43  0  0
    0.9182   -1.7369   -0.8146 C   0  0  0  0  0  0  0  0  0 11  0  0
    1.0373   -1.4291   -1.8557 H   0  0  0  0  0  0  0  0  0 15  0  0
    0.8824   -2.8400   -0.7807 H   0  0  0  0  0  0  0  0  0 16  0  0
    2.1299   -1.2727   -0.0006 C   0  0  0  0  0  0  0  0  0 12  0  0
    3.0159   -1.7875   -0.3623 H   0  0  0  0  0  0  0  0  0 13  0  0
    2.2841   -0.2024   -0.1608 H   0  0  0  0  0  0  0  0  0 14  0  0
    3.6275   -4.2297    4.6809 H   0  0  0  0  0  0  0  0  0 49  0  0
    3.3280   -5.9328    4.3374 H   0  0  0  0  0  0  0  0  0 50  0  0
    3.9462   -4.8738    3.0564 H   0  0  0  0  0  0  0  0  0 51  0  0
  1  2  1  0
  2  3  1  0
  2  4  1  0
  2  5  1  0
  5  6  1  0
  6  7  2  0
  6  8  1  0
  8  9  1  1
  8 10  1  0
 10 11  1  0
 10 12  1  0
 10 13  1  0
 13 14  1  0
 13 15  1  0
 13 16  1  0
 16 17  1  0
 17 18  1  0
 18 19  1  0
 19 20  2  0
 19 21  1  0
 21 22  1  0
 22 23  4  0
 23 24  1  0
 23 25  4  0
 25 26  1  0
 26 27  1  0
 26 28  1  0
 26 29  1  0
 25 30  4  0
 30 31  1  0
 30 32  4  0
 32 33  1  0
 32 34  4  0
 34 35  1  0
 35 36  1  0
 35 37  1  0
 35 38  1  0
 21 39  1  0
 18 40  1  0
 18 41  1  0
 17 42  1  0
 17 43  1  0
 16 44  1  0
 44 45  1  0
 44 46  1  0
 44 47  1  0
 47 48  1  0
 47 49  1  0
  1 50  1  0
  1 51  1  0
  1 52  1  0
 47  8  1  0
 34 22  4  0
M  END
>  <sample_id>  (478)
train::CCOC(=O)C1CCN(CCC(=O)Nc2cc(C)ccc2C)CC1__gen0000

>  <partition>  (478)
BAT_EXTERNAL_CONFIRM

>  <method>  (478)
BA_seed193

>  <candidate>  (478)
primary

$$$$
train::CCOC(=O)C1CCN(CCC(=O)Nc2cc(C)ccc2C)CC1__gen0001
     RDKit          3D

 52 53  0  0  0  0  0  0  0  0999 V2000
   -5.9388    1.3095   -0.1261 C   0  0  0  0  0  0  0  0  0  0  0  0
   -5.0281    0.6291   -1.1231 C   0  0  0  0  0  0  0  0  0  1  0  0
   -4.4279    1.3842   -1.6422 H   0  0  0  0  0  0  0  0  0  2  0  0
   -5.6073    0.0548   -1.8488 H   0  0  0  0  0  0  0  0  0  3  0  0
   -4.1568   -0.2984   -0.4927 O   0  0  0  0  0  0  0  0  0  4  0  0
   -3.0172    0.1744    0.0369 C   0  0  0  0  0  0  0  0  0  5  0  0
   -2.6797    1.3254   -0.0108 O   0  0  0  0  0  0  0  0  0  6  0  0
   -2.2064   -0.9228    0.6926 C   0  0  2  0  0  0  0  0  0  7  0  0
   -2.8087   -1.8343    0.7255 H   0  0  0  0  0  0  0  0  0 48  0  0
   -1.8131   -0.4820    2.1034 C   0  0  0  0  0  0  0  0  0  8  0  0
   -2.6993   -0.4115    2.7358 H   0  0  0  0  0  0  0  0  0 46  0  0
   -1.3625    0.5121    2.0464 H   0  0  0  0  0  0  0  0  0 47  0  0
   -0.8139   -1.4529    2.7176 C   0  0  0  0  0  0  0  0  0  9  0  0
   -1.2820   -2.4396    2.8372 H   0  0  0  0  0  0  0  0  0 44  0  0
   -0.5244   -1.0826    3.7084 H   0  0  0  0  0  0  0  0  0 45  0  0
    0.3702   -1.5359    1.8783 N   0  0  0  0  0  0  0  0  0 10  0  0
    1.4909   -2.2283    2.4890 C   0  0  0  0  0  0  0  0  0 17  0  0
    2.7603   -1.3846    2.4649 C   0  0  0  0  0  0  0  0  0 18  0  0
    3.1151   -0.9887    1.0430 C   0  0  0  0  0  0  0  0  0 19  0  0
    3.9435   -1.5738    0.3675 O   0  0  0  0  0  0  0  0  0 20  0  0
    2.3850    0.0838    0.6147 N   0  0  0  0  0  0  0  0  0 21  0  0
    2.3728    0.7126   -0.6368 C   0  0  0  0  0  0  0  0  0 22  0  0
    3.1404    0.2425   -1.7084 C   0  0  0  0  0  0  0  0  0 23  0  0
    3.7408   -0.6356   -1.5670 H   0  0  0  0  0  0  0  0  0 38  0  0
    3.1129    0.8660   -2.9389 C   0  0  0  0  0  0  0  0  0 24  0  0
    3.9414    0.3570   -4.0650 C   0  0  0  0  0  0  0  0  0 34  0  0
    3.5238    0.6419   -5.0233 H   0  0  0  0  0  0  0  0  0 35  0  0
    4.9562    0.7582   -3.9992 H   0  0  0  0  0  0  0  0  0 36  0  0
    4.0336   -0.7338   -4.0181 H   0  0  0  0  0  0  0  0  0 37  0  0
    2.3227    2.0006   -3.0972 C   0  0  0  0  0  0  0  0  0 25  0  0
    2.2988    2.5089   -4.0506 H   0  0  0  0  0  0  0  0  0 33  0  0
    1.5713    2.4821   -2.0394 C   0  0  0  0  0  0  0  0  0 26  0  0
    0.9658    3.3596   -2.1721 H   0  0  0  0  0  0  0  0  0 32  0  0
    1.5928    1.8639   -0.8034 C   0  0  0  0  0  0  0  0  0 27  0  0
    0.7780    2.4373    0.3217 C   0  0  0  0  0  0  0  0  0 28  0  0
    0.3536    3.4014    0.0261 H   0  0  0  0  0  0  0  0  0 29  0  0
   -0.0575    1.7907    0.5947 H   0  0  0  0  0  0  0  0  0 30  0  0
    1.3883    2.6039    1.2155 H   0  0  0  0  0  0  0  0  0 31  0  0
    1.6665    0.3844    1.2552 H   0  0  0  0  0  0  0  0  0 39  0  0
    2.6289   -0.4881    3.0791 H   0  0  0  0  0  0  0  0  0 40  0  0
    3.5878   -1.9631    2.8636 H   0  0  0  0  0  0  0  0  0 41  0  0
    1.6611   -3.1859    1.9727 H   0  0  0  0  0  0  0  0  0 42  0  0
    1.2668   -2.4826    3.5357 H   0  0  0  0  0  0  0  0  0 43  0  0
    0.0274   -2.0667    0.5724 C   0  0  0  0  0  0  0  0  0 11  0  0
   -0.4171   -3.0677    0.6778 H   0  0  0  0  0  0  0  0  0 15  0  0
    0.9458   -2.1556   -0.0179 H   0  0  0  0  0  0  0  0  0 16  0  0
   -0.9470   -1.1407   -0.1446 C   0  0  0  0  0  0  0  0  0 12  0  0
   -1.2084   -1.5757   -1.1156 H   0  0  0  0  0  0  0  0  0 13  0  0
   -0.4679   -0.1809   -0.3367 H   0  0  0  0  0  0  0  0  0 14  0  0
   -6.6384    1.9686   -0.6210 H   0  0  0  0  0  0  0  0  0 49  0  0
   -6.5069    0.5662    0.4428 H   0  0  0  0  0  0  0  0  0 50  0  0
   -5.3331    1.8926    0.5806 H   0  0  0  0  0  0  0  0  0 51  0  0
  1  2  1  0
  2  3  1  0
  2  4  1  0
  2  5  1  0
  5  6  1  0
  6  7  2  0
  6  8  1  0
  8  9  1  1
  8 10  1  0
 10 11  1  0
 10 12  1  0
 10 13  1  0
 13 14  1  0
 13 15  1  0
 13 16  1  0
 16 17  1  0
 17 18  1  0
 18 19  1  0
 19 20  2  0
 19 21  1  0
 21 22  1  0
 22 23  4  0
 23 24  1  0
 23 25  4  0
 25 26  1  0
 26 27  1  0
 26 28  1  0
 26 29  1  0
 25 30  4  0
 30 31  1  0
 30 32  4  0
 32 33  1  0
 32 34  4  0
 34 35  1  0
 35 36  1  0
 35 37  1  0
 35 38  1  0
 21 39  1  0
 18 40  1  0
 18 41  1  0
 17 42  1  0
 17 43  1  0
 16 44  1  0
 44 45  1  0
 44 46  1  0
 44 47  1  0
 47 48  1  0
 47 49  1  0
  1 50  1  0
  1 51  1  0
  1 52  1  0
 47  8  1  0
 34 22  4  0
M  END
>  <sample_id>  (479)
train::CCOC(=O)C1CCN(CCC(=O)Nc2cc(C)ccc2C)CC1__gen0001

>  <partition>  (479)
BAT_EXTERNAL_CONFIRM

>  <method>  (479)
BA_seed193

>  <candidate>  (479)
primary

$$$$
train::CCOC(=O)C1CCN(CCC(=O)Nc2cc(C)ccc2C)CC1__gen0002
     RDKit          3D

 52 53  0  0  0  0  0  0  0  0999 V2000
   -0.5229    6.2429   -3.8638 C   0  0  0  0  0  0  0  0  0  0  0  0
   -0.0155    5.0234   -4.6087 C   0  0  0  0  0  0  0  0  0  1  0  0
   -0.5161    4.9299   -5.5821 H   0  0  0  0  0  0  0  0  0  2  0  0
    1.0745    5.1038   -4.7431 H   0  0  0  0  0  0  0  0  0  3  0  0
   -0.3044    3.8204   -3.9166 O   0  0  0  0  0  0  0  0  0  4  0  0
    0.5333    3.4738   -2.9352 C   0  0  0  0  0  0  0  0  0  5  0  0
    1.5041    4.1087   -2.5991 O   0  0  0  0  0  0  0  0  0  6  0  0
    0.0600    2.2050   -2.2392 C   0  0  2  0  0  0  0  0  0  7  0  0
   -0.5035    1.6155   -2.9671 H   0  0  0  0  0  0  0  0  0 48  0  0
   -0.8618    2.5767   -1.0755 C   0  0  0  0  0  0  0  0  0  8  0  0
   -0.3378    3.2666   -0.4180 H   0  0  0  0  0  0  0  0  0 46  0  0
   -1.7513    3.0748   -1.4537 H   0  0  0  0  0  0  0  0  0 47  0  0
   -1.2591    1.3113   -0.2978 C   0  0  0  0  0  0  0  0  0  9  0  0
   -1.8280    0.6499   -0.9521 H   0  0  0  0  0  0  0  0  0 44  0  0
   -1.8896    1.5843    0.5491 H   0  0  0  0  0  0  0  0  0 45  0  0
   -0.1172    0.5492    0.1994 N   0  0  0  0  0  0  0  0  0 10  0  0
    0.5475    1.1610    1.3442 C   0  0  0  0  0  0  0  0  0 17  0  0
   -0.1165    0.7669    2.6734 C   0  0  0  0  0  0  0  0  0 18  0  0
    0.1510   -0.6928    3.0541 C   0  0  0  0  0  0  0  0  0 19  0  0
    0.6284   -0.9969    4.1283 O   0  0  0  0  0  0  0  0  0 20  0  0
   -0.2168   -1.5517    2.0635 N   0  0  0  0  0  0  0  0  0 21  0  0
   -0.1198   -2.9405    2.0228 C   0  0  0  0  0  0  0  0  0 22  0  0
    0.5589   -3.6553    3.0047 C   0  0  0  0  0  0  0  0  0 23  0  0
    0.9990   -3.1089    3.8260 H   0  0  0  0  0  0  0  0  0 38  0  0
    0.6645   -5.0384    2.9343 C   0  0  0  0  0  0  0  0  0 24  0  0
    1.3885   -5.7898    4.0085 C   0  0  0  0  0  0  0  0  0 34  0  0
    0.7141   -6.4947    4.4937 H   0  0  0  0  0  0  0  0  0 35  0  0
    1.7840   -5.1141    4.7654 H   0  0  0  0  0  0  0  0  0 36  0  0
    2.2098   -6.3616    3.5753 H   0  0  0  0  0  0  0  0  0 37  0  0
    0.0764   -5.7110    1.8717 C   0  0  0  0  0  0  0  0  0 25  0  0
    0.1485   -6.7841    1.8052 H   0  0  0  0  0  0  0  0  0 33  0  0
   -0.5997   -5.0037    0.9009 C   0  0  0  0  0  0  0  0  0 26  0  0
   -1.0606   -5.5268    0.0776 H   0  0  0  0  0  0  0  0  0 32  0  0
   -0.7210   -3.6196    0.9525 C   0  0  0  0  0  0  0  0  0 27  0  0
   -1.4957   -2.8863   -0.0989 C   0  0  0  0  0  0  0  0  0 28  0  0
   -1.8955   -3.5757   -0.8297 H   0  0  0  0  0  0  0  0  0 29  0  0
   -2.3305   -2.3525    0.3415 H   0  0  0  0  0  0  0  0  0 30  0  0
   -0.8771   -2.1651   -0.6267 H   0  0  0  0  0  0  0  0  0 31  0  0
   -0.5500   -1.0802    1.2316 H   0  0  0  0  0  0  0  0  0 39  0  0
   -1.1991    0.9063    2.6124 H   0  0  0  0  0  0  0  0  0 40  0  0
    0.2702    1.3964    3.4696 H   0  0  0  0  0  0  0  0  0 41  0  0
    1.5862    0.8327    1.3658 H   0  0  0  0  0  0  0  0  0 42  0  0
    0.5517    2.2559    1.2622 H   0  0  0  0  0  0  0  0  0 43  0  0
    0.7598    0.2008   -0.9098 C   0  0  0  0  0  0  0  0  0 11  0  0
    0.2034   -0.4533   -1.5810 H   0  0  0  0  0  0  0  0  0 15  0  0
    1.6166   -0.3531   -0.5094 H   0  0  0  0  0  0  0  0  0 16  0  0
    1.2509    1.4137   -1.6958 C   0  0  0  0  0  0  0  0  0 12  0  0
    1.8838    1.0900   -2.5208 H   0  0  0  0  0  0  0  0  0 13  0  0
    1.8542    2.0486   -1.0577 H   0  0  0  0  0  0  0  0  0 14  0  0
   -0.0046    6.3453   -2.9139 H   0  0  0  0  0  0  0  0  0 49  0  0
   -1.5897    6.1641   -3.6896 H   0  0  0  0  0  0  0  0  0 50  0  0
   -0.3357    7.1383   -4.4488 H   0  0  0  0  0  0  0  0  0 51  0  0
  1  2  1  0
  2  3  1  0
  2  4  1  0
  2  5  1  0
  5  6  1  0
  6  7  2  0
  6  8  1  0
  8  9  1  6
  8 10  1  0
 10 11  1  0
 10 12  1  0
 10 13  1  0
 13 14  1  0
 13 15  1  0
 13 16  1  0
 16 17  1  0
 17 18  1  0
 18 19  1  0
 19 20  2  0
 19 21  1  0
 21 22  1  0
 22 23  4  0
 23 24  1  0
 23 25  4  0
 25 26  1  0
 26 27  1  0
 26 28  1  0
 26 29  1  0
 25 30  4  0
 30 31  1  0
 30 32  4  0
 32 33  1  0
 32 34  4  0
 34 35  1  0
 35 36  1  0
 35 37  1  0
 35 38  1  0
 21 39  1  0
 18 40  1  0
 18 41  1  0
 17 42  1  0
 17 43  1  0
 16 44  1  0
 44 45  1  0
 44 46  1  0
 44 47  1  0
 47 48  1  0
 47 49  1  0
  1 50  1  0
  1 51  1  0
  1 52  1  0
 47  8  1  0
 34 22  4  0
M  END
>  <sample_id>  (480)
train::CCOC(=O)C1CCN(CCC(=O)Nc2cc(C)ccc2C)CC1__gen0002

>  <partition>  (480)
BAT_EXTERNAL_CONFIRM

>  <method>  (480)
BA_seed193

>  <candidate>  (480)
primary

$$$$
train::COc1ccc(-n2cnc3cc(C(=O)N4CCOCC4)ccc32)cc1__gen0000
     RDKit          3D

 44 47  0  0  0  0  0  0  0  0999 V2000
   -3.5370    6.6088    0.3256 C   0  0  0  0  0  0  0  0  0  0  0  0
   -4.2935    5.8078    0.2759 H   0  0  0  0  0  0  0  0  0  1  0  0
   -2.5992    6.3508    1.3236 O   0  0  0  0  0  0  0  0  0  2  0  0
   -1.8452    5.2286    1.2455 C   0  0  0  0  0  0  0  0  0  3  0  0
   -1.8965    4.2968    0.2173 C   0  0  0  0  0  0  0  0  0  4  0  0
   -2.5946    4.4119   -0.6120 H   0  0  0  0  0  0  0  0  0 41  0  0
   -1.0894    3.1870    0.2282 C   0  0  0  0  0  0  0  0  0  5  0  0
   -1.1301    2.4638   -0.5904 H   0  0  0  0  0  0  0  0  0 40  0  0
   -0.1804    2.9770    1.2652 C   0  0  0  0  0  0  0  0  0  6  0  0
    0.6499    1.8607    1.2730 N   0  0  0  0  0  0  0  0  0 11  0  0
    1.9746    1.8507    1.6104 C   0  0  0  0  0  0  0  0  0 12  0  0
    2.5096    2.7325    1.8940 H   0  0  0  0  0  0  0  0  0 39  0  0
    2.5414    0.6884    1.5356 N   0  0  0  0  0  0  0  0  0 13  0  0
    1.5517   -0.1844    1.1261 C   0  0  0  0  0  0  0  0  0 14  0  0
    1.5683   -1.5390    0.8782 C   0  0  0  0  0  0  0  0  0 15  0  0
    2.4970   -2.0994    1.0103 H   0  0  0  0  0  0  0  0  0 38  0  0
    0.4074   -2.1530    0.4917 C   0  0  0  0  0  0  0  0  0 16  0  0
    0.3384   -3.6471    0.2896 C   0  0  0  0  0  0  0  0  0 22  0  0
   -0.3850   -4.3357    0.9883 O   0  0  0  0  0  0  0  0  0 23  0  0
    1.1916   -4.1694   -0.6264 N   0  0  0  0  0  0  0  0  0 24  0  0
    1.1485   -5.5865   -0.8750 C   0  0  0  0  0  0  0  0  0 25  0  0
    0.2450   -5.9640   -0.3869 H   0  0  0  0  0  0  0  0  0 26  0  0
    2.0142   -6.0756   -0.4215 H   0  0  0  0  0  0  0  0  0 37  0  0
    1.1132   -5.8453   -2.3874 C   0  0  0  0  0  0  0  0  0 27  0  0
    2.1379   -5.9457   -2.7888 H   0  0  0  0  0  0  0  0  0 28  0  0
    0.5794   -6.7929   -2.5968 H   0  0  0  0  0  0  0  0  0 36  0  0
    0.4098   -4.8537   -3.0550 O   0  0  0  0  0  0  0  0  0 29  0  0
    1.0911   -3.6152   -3.0139 C   0  0  0  0  0  0  0  0  0 30  0  0
    1.7903   -3.5425   -3.8549 H   0  0  0  0  0  0  0  0  0 31  0  0
    0.3277   -2.8395   -3.1215 H   0  0  0  0  0  0  0  0  0 35  0  0
    1.8541   -3.4178   -1.6836 C   0  0  0  0  0  0  0  0  0 32  0  0
    1.8884   -2.3561   -1.4163 H   0  0  0  0  0  0  0  0  0 33  0  0
    2.8793   -3.7936   -1.7603 H   0  0  0  0  0  0  0  0  0 34  0  0
   -0.7969   -1.4281    0.3750 C   0  0  0  0  0  0  0  0  0 17  0  0
   -1.6923   -1.9669    0.0983 H   0  0  0  0  0  0  0  0  0 21  0  0
   -0.8344   -0.0630    0.5925 C   0  0  0  0  0  0  0  0  0 18  0  0
   -1.7614    0.4728    0.4993 H   0  0  0  0  0  0  0  0  0 20  0  0
    0.3425    0.5463    0.9598 C   0  0  0  0  0  0  0  0  0 19  0  0
   -0.1091    3.9141    2.2970 C   0  0  0  0  0  0  0  0  0  7  0  0
    0.5844    3.7660    3.1059 H   0  0  0  0  0  0  0  0  0 10  0  0
   -0.9220    5.0289    2.2719 C   0  0  0  0  0  0  0  0  0  8  0  0
   -0.8660    5.7634    3.0680 H   0  0  0  0  0  0  0  0  0  9  0  0
   -4.0268    7.5373    0.6059 H   0  0  0  0  0  0  0  0  0 42  0  0
   -3.0760    6.7209   -0.6611 H   0  0  0  0  0  0  0  0  0 43  0  0
  1  2  1  0
  1  3  1  0
  3  4  1  0
  4  5  4  0
  5  6  1  0
  5  7  4  0
  7  8  1  0
  7  9  4  0
  9 10  1  0
 10 11  4  0
 11 12  1  0
 11 13  4  0
 13 14  4  0
 14 15  4  0
 15 16  1  0
 15 17  4  0
 17 18  1  0
 18 19  2  0
 18 20  1  0
 20 21  1  0
 21 22  1  0
 21 23  1  0
 21 24  1  0
 24 25  1  0
 24 26  1  0
 24 27  1  0
 27 28  1  0
 28 29  1  0
 28 30  1  0
 28 31  1  0
 31 32  1  0
 31 33  1  0
 17 34  4  0
 34 35  1  0
 34 36  4  0
 36 37  1  0
 36 38  4  0
  9 39  4  0
 39 40  1  0
 39 41  4  0
 41 42  1  0
  1 43  1  0
  1 44  1  0
 41  4  4  0
 38 10  4  0
 38 14  4  0
 31 20  1  0
M  END
>  <sample_id>  (481)
train::COc1ccc(-n2cnc3cc(C(=O)N4CCOCC4)ccc32)cc1__gen0000

>  <partition>  (481)
BAT_EXTERNAL_CONFIRM

>  <method>  (481)
BA_seed193

>  <candidate>  (481)
primary

$$$$
train::COc1ccc(-n2cnc3cc(C(=O)N4CCOCC4)ccc32)cc1__gen0001
     RDKit          3D

 44 47  0  0  0  0  0  0  0  0999 V2000
    5.7950    1.0095    4.9060 C   0  0  0  0  0  0  0  0  0  0  0  0
    6.5787    1.4207    5.5554 H   0  0  0  0  0  0  0  0  0  1  0  0
    5.5782    1.9608    3.9102 O   0  0  0  0  0  0  0  0  0  2  0  0
    4.6348    1.7162    2.9564 C   0  0  0  0  0  0  0  0  0  3  0  0
    3.8419    0.5699    2.9015 C   0  0  0  0  0  0  0  0  0  4  0  0
    3.9484   -0.2137    3.6341 H   0  0  0  0  0  0  0  0  0 41  0  0
    2.8961    0.4273    1.9016 C   0  0  0  0  0  0  0  0  0  5  0  0
    2.3079   -0.4784    1.8446 H   0  0  0  0  0  0  0  0  0 40  0  0
    2.7437    1.4153    0.9343 C   0  0  0  0  0  0  0  0  0  6  0  0
    1.7937    1.2587   -0.0966 N   0  0  0  0  0  0  0  0  0 11  0  0
    1.9729    1.5383   -1.4176 C   0  0  0  0  0  0  0  0  0 12  0  0
    2.9062    1.9104   -1.7942 H   0  0  0  0  0  0  0  0  0 39  0  0
    0.9519    1.2822   -2.1590 N   0  0  0  0  0  0  0  0  0 13  0  0
   -0.0176    0.8084   -1.3035 C   0  0  0  0  0  0  0  0  0 14  0  0
   -1.3184    0.4002   -1.5627 C   0  0  0  0  0  0  0  0  0 15  0  0
   -1.7108    0.4137   -2.5687 H   0  0  0  0  0  0  0  0  0 38  0  0
   -2.0807   -0.0217   -0.4772 C   0  0  0  0  0  0  0  0  0 16  0  0
   -3.5224   -0.3959   -0.6679 C   0  0  0  0  0  0  0  0  0 22  0  0
   -4.4151    0.2348   -0.1490 O   0  0  0  0  0  0  0  0  0 23  0  0
   -3.7681   -1.5068   -1.4168 N   0  0  0  0  0  0  0  0  0 24  0  0
   -2.7966   -2.3576   -2.0592 C   0  0  0  0  0  0  0  0  0 25  0  0
   -1.7863   -2.0332   -1.8144 H   0  0  0  0  0  0  0  0  0 26  0  0
   -2.9485   -3.3781   -1.6863 H   0  0  0  0  0  0  0  0  0 37  0  0
   -3.0434   -2.3467   -3.5697 C   0  0  0  0  0  0  0  0  0 27  0  0
   -2.8494   -1.3429   -3.9665 H   0  0  0  0  0  0  0  0  0 28  0  0
   -2.3823   -3.0615   -4.0753 H   0  0  0  0  0  0  0  0  0 36  0  0
   -4.3558   -2.7314   -3.8707 O   0  0  0  0  0  0  0  0  0 29  0  0
   -5.3026   -1.8744   -3.2594 C   0  0  0  0  0  0  0  0  0 30  0  0
   -6.2819   -2.2573   -3.5319 H   0  0  0  0  0  0  0  0  0 31  0  0
   -5.1753   -0.8574   -3.6487 H   0  0  0  0  0  0  0  0  0 35  0  0
   -5.1329   -1.8679   -1.7315 C   0  0  0  0  0  0  0  0  0 32  0  0
   -5.3435   -2.8654   -1.3354 H   0  0  0  0  0  0  0  0  0 33  0  0
   -5.7966   -1.1322   -1.2802 H   0  0  0  0  0  0  0  0  0 34  0  0
   -1.5653    0.0006    0.8204 C   0  0  0  0  0  0  0  0  0 17  0  0
   -2.2103   -0.3037    1.6314 H   0  0  0  0  0  0  0  0  0 21  0  0
   -0.2686    0.3897    1.0917 C   0  0  0  0  0  0  0  0  0 18  0  0
    0.1059    0.4222    2.1028 H   0  0  0  0  0  0  0  0  0 20  0  0
    0.5006    0.7859    0.0160 C   0  0  0  0  0  0  0  0  0 19  0  0
    3.5341    2.5574    0.9805 C   0  0  0  0  0  0  0  0  0  7  0  0
    3.4120    3.3210    0.2344 H   0  0  0  0  0  0  0  0  0 10  0  0
    4.4761    2.6912    1.9780 C   0  0  0  0  0  0  0  0  0  8  0  0
    5.0895    3.5823    2.0324 H   0  0  0  0  0  0  0  0  0  9  0  0
    4.8869    0.8621    5.5130 H   0  0  0  0  0  0  0  0  0 42  0  0
    6.1180    0.0476    4.4979 H   0  0  0  0  0  0  0  0  0 43  0  0
  1  2  1  0
  1  3  1  0
  3  4  1  0
  4  5  4  0
  5  6  1  0
  5  7  4  0
  7  8  1  0
  7  9  4  0
  9 10  1  0
 10 11  4  0
 11 12  1  0
 11 13  4  0
 13 14  4  0
 14 15  4  0
 15 16  1  0
 15 17  4  0
 17 18  1  0
 18 19  2  0
 18 20  1  0
 20 21  1  0
 21 22  1  0
 21 23  1  0
 21 24  1  0
 24 25  1  0
 24 26  1  0
 24 27  1  0
 27 28  1  0
 28 29  1  0
 28 30  1  0
 28 31  1  0
 31 32  1  0
 31 33  1  0
 17 34  4  0
 34 35  1  0
 34 36  4  0
 36 37  1  0
 36 38  4  0
  9 39  4  0
 39 40  1  0
 39 41  4  0
 41 42  1  0
  1 43  1  0
  1 44  1  0
 41  4  4  0
 38 10  4  0
 38 14  4  0
 31 20  1  0
M  END
>  <sample_id>  (482)
train::COc1ccc(-n2cnc3cc(C(=O)N4CCOCC4)ccc32)cc1__gen0001

>  <partition>  (482)
BAT_EXTERNAL_CONFIRM

>  <method>  (482)
BA_seed193

>  <candidate>  (482)
primary

$$$$
train::COc1ccc(-n2cnc3cc(C(=O)N4CCOCC4)ccc32)cc1__gen0002
     RDKit          3D

 44 47  0  0  0  0  0  0  0  0999 V2000
   -3.0414   -0.3782    7.2906 C   0  0  0  0  0  0  0  0  0  0  0  0
   -3.4584   -1.0236    8.0638 H   0  0  0  0  0  0  0  0  0  1  0  0
   -3.2173   -1.0623    6.0721 O   0  0  0  0  0  0  0  0  0  2  0  0
   -2.7797   -0.4939    4.9209 C   0  0  0  0  0  0  0  0  0  3  0  0
   -2.1496    0.7464    4.8490 C   0  0  0  0  0  0  0  0  0  4  0  0
   -1.9783    1.3362    5.7290 H   0  0  0  0  0  0  0  0  0 41  0  0
   -1.7383    1.2341    3.6239 C   0  0  0  0  0  0  0  0  0  5  0  0
   -1.2451    2.1938    3.5581 H   0  0  0  0  0  0  0  0  0 40  0  0
   -1.9411    0.5006    2.4529 C   0  0  0  0  0  0  0  0  0  6  0  0
   -1.5421    1.0126    1.2136 N   0  0  0  0  0  0  0  0  0 11  0  0
   -1.6624    2.3031    0.7914 C   0  0  0  0  0  0  0  0  0 12  0  0
   -2.1128    3.0565    1.3910 H   0  0  0  0  0  0  0  0  0 39  0  0
   -1.2221    2.4967   -0.4206 N   0  0  0  0  0  0  0  0  0 13  0  0
   -0.7499    1.2916   -0.8443 C   0  0  0  0  0  0  0  0  0 14  0  0
   -0.1459    0.9379   -2.0481 C   0  0  0  0  0  0  0  0  0 15  0  0
   -0.0378    1.6597   -2.8398 H   0  0  0  0  0  0  0  0  0 38  0  0
    0.2620   -0.3809   -2.1924 C   0  0  0  0  0  0  0  0  0 16  0  0
    0.8413   -0.8576   -3.4887 C   0  0  0  0  0  0  0  0  0 22  0  0
    0.3444   -1.7970   -4.0966 O   0  0  0  0  0  0  0  0  0 23  0  0
    1.9029   -0.1662   -3.9753 N   0  0  0  0  0  0  0  0  0 24  0  0
    2.6910    0.7936   -3.2245 C   0  0  0  0  0  0  0  0  0 25  0  0
    2.4660    0.6478   -2.1512 H   0  0  0  0  0  0  0  0  0 26  0  0
    2.4413    1.8228   -3.5037 H   0  0  0  0  0  0  0  0  0 37  0  0
    4.1853    0.5374   -3.4748 C   0  0  0  0  0  0  0  0  0 27  0  0
    4.7726    0.8236   -2.5992 H   0  0  0  0  0  0  0  0  0 28  0  0
    4.5366    1.1150   -4.3368 H   0  0  0  0  0  0  0  0  0 36  0  0
    4.4211   -0.8389   -3.6749 O   0  0  0  0  0  0  0  0  0 29  0  0
    3.8647   -1.3043   -4.8889 C   0  0  0  0  0  0  0  0  0 30  0  0
    4.5802   -1.1446   -5.7036 H   0  0  0  0  0  0  0  0  0 31  0  0
    3.7121   -2.3779   -4.7513 H   0  0  0  0  0  0  0  0  0 35  0  0
    2.5356   -0.5987   -5.2063 C   0  0  0  0  0  0  0  0  0 32  0  0
    1.8426   -1.2849   -5.7061 H   0  0  0  0  0  0  0  0  0 33  0  0
    2.6983    0.2746   -5.8424 H   0  0  0  0  0  0  0  0  0 34  0  0
    0.0767   -1.3215   -1.1782 C   0  0  0  0  0  0  0  0  0 17  0  0
    0.3921   -2.3357   -1.3545 H   0  0  0  0  0  0  0  0  0 21  0  0
   -0.5192   -0.9835    0.0191 C   0  0  0  0  0  0  0  0  0 18  0  0
   -0.6385   -1.7203    0.8033 H   0  0  0  0  0  0  0  0  0 20  0  0
   -0.9361    0.3267    0.1744 C   0  0  0  0  0  0  0  0  0 19  0  0
   -2.5968   -0.7254    2.5332 C   0  0  0  0  0  0  0  0  0  7  0  0
   -2.7969   -1.2958    1.6409 H   0  0  0  0  0  0  0  0  0 10  0  0
   -2.9866   -1.2189    3.7577 C   0  0  0  0  0  0  0  0  0  8  0  0
   -3.5111   -2.1721    3.8257 H   0  0  0  0  0  0  0  0  0  9  0  0
   -1.9847   -0.2059    7.5019 H   0  0  0  0  0  0  0  0  0 42  0  0
   -3.5752    0.5774    7.2896 H   0  0  0  0  0  0  0  0  0 43  0  0
  1  2  1  0
  1  3  1  0
  3  4  1  0
  4  5  4  0
  5  6  1  0
  5  7  4  0
  7  8  1  0
  7  9  4  0
  9 10  1  0
 10 11  4  0
 11 12  1  0
 11 13  4  0
 13 14  4  0
 14 15  4  0
 15 16  1  0
 15 17  4  0
 17 18  1  0
 18 19  2  0
 18 20  1  0
 20 21  1  0
 21 22  1  0
 21 23  1  0
 21 24  1  0
 24 25  1  0
 24 26  1  0
 24 27  1  0
 27 28  1  0
 28 29  1  0
 28 30  1  0
 28 31  1  0
 31 32  1  0
 31 33  1  0
 17 34  4  0
 34 35  1  0
 34 36  4  0
 36 37  1  0
 36 38  4  0
  9 39  4  0
 39 40  1  0
 39 41  4  0
 41 42  1  0
  1 43  1  0
  1 44  1  0
 41  4  4  0
 38 10  4  0
 38 14  4  0
 31 20  1  0
M  END
>  <sample_id>  (483)
train::COc1ccc(-n2cnc3cc(C(=O)N4CCOCC4)ccc32)cc1__gen0002

>  <partition>  (483)
BAT_EXTERNAL_CONFIRM

>  <method>  (483)
BA_seed193

>  <candidate>  (483)
primary

$$$$
train::COc1cc(OC)cc(-c2cc(N)n(S(=O)(=O)Cc3ccccc3)n2)c1__gen0000
     RDKit          3D

 45 47  0  0  0  0  0  0  0  0999 V2000
   -2.2076   -3.2105    4.0734 C   0  0  0  0  0  0  0  0  0  0  0  0
   -2.0250   -2.6716    5.0161 H   0  0  0  0  0  0  0  0  0  1  0  0
   -1.2338   -2.9610    3.1119 O   0  0  0  0  0  0  0  0  0  2  0  0
   -1.0474   -1.6899    2.6775 C   0  0  0  0  0  0  0  0  0  3  0  0
   -1.7810   -0.5866    3.1120 C   0  0  0  0  0  0  0  0  0  4  0  0
   -2.5602   -0.7059    3.8469 H   0  0  0  0  0  0  0  0  0 42  0  0
   -1.5036    0.6814    2.5955 C   0  0  0  0  0  0  0  0  0  5  0  0
   -2.1675    1.8107    2.9554 O   0  0  0  0  0  0  0  0  0 37  0  0
   -3.1590    1.7425    3.9471 C   0  0  0  0  0  0  0  0  0 38  0  0
   -3.5193    2.7731    4.0727 H   0  0  0  0  0  0  0  0  0 39  0  0
   -3.9889    1.1091    3.6317 H   0  0  0  0  0  0  0  0  0 40  0  0
   -2.7531    1.3791    4.8943 H   0  0  0  0  0  0  0  0  0 41  0  0
   -0.5029    0.8426    1.6476 C   0  0  0  0  0  0  0  0  0  6  0  0
   -0.2895    1.8031    1.2447 H   0  0  0  0  0  0  0  0  0 36  0  0
    0.2262   -0.2580    1.2092 C   0  0  0  0  0  0  0  0  0  7  0  0
    1.2585   -0.0838    0.1870 C   0  0  0  0  0  0  0  0  0 10  0  0
    1.5485    1.1168   -0.2641 N   0  0  0  0  0  0  0  0  0 11  0  0
    2.5103    0.9544   -1.2093 N   0  0  0  0  0  0  0  0  0 12  0  0
    2.8223    2.2634   -2.2352 S   0  0  2  0  0  6  0  0  0 19  0  0
    3.7096    1.7685   -3.2537 O   0  0  0  0  0  0  0  0  0 20  0  0
    3.2239    3.4114   -1.4788 O   0  0  0  0  0  0  0  0  0 21  0  0
    1.1774    2.6139   -2.9616 C   0  0  0  0  0  0  0  0  0 22  0  0
    0.4072    1.3424   -2.9788 C   0  0  0  0  0  0  0  0  0 23  0  0
    0.8524    0.2780   -3.7604 C   0  0  0  0  0  0  0  0  0 24  0  0
    1.7302    0.4073   -4.3758 H   0  0  0  0  0  0  0  0  0 33  0  0
    0.2416   -0.9594   -3.6980 C   0  0  0  0  0  0  0  0  0 25  0  0
    0.6076   -1.7743   -4.3002 H   0  0  0  0  0  0  0  0  0 32  0  0
   -0.8699   -1.1479   -2.8780 C   0  0  0  0  0  0  0  0  0 26  0  0
   -1.3428   -2.1124   -2.8205 H   0  0  0  0  0  0  0  0  0 31  0  0
   -1.3343   -0.0887   -2.1116 C   0  0  0  0  0  0  0  0  0 27  0  0
   -2.1965   -0.2279   -1.4637 H   0  0  0  0  0  0  0  0  0 30  0  0
   -0.7091    1.1491   -2.1788 C   0  0  0  0  0  0  0  0  0 28  0  0
   -1.0741    1.9625   -1.5670 H   0  0  0  0  0  0  0  0  0 29  0  0
    0.7172    3.3872   -2.3530 H   0  0  0  0  0  0  0  0  0 34  0  0
    1.3720    3.0004   -3.9645 H   0  0  0  0  0  0  0  0  0 35  0  0
    2.7996   -0.3693   -1.3804 C   0  0  0  0  0  0  0  0  0 13  0  0
    3.6421   -0.8131   -2.3627 N   0  0  0  0  0  0  0  0  0 16  0  0
    4.1836   -0.0765   -2.7879 H   0  0  0  0  0  0  0  0  0 17  0  0
    4.0859   -1.7088   -2.1933 H   0  0  0  0  0  0  0  0  0 18  0  0
    2.0394   -1.0618   -0.4679 C   0  0  0  0  0  0  0  0  0 14  0  0
    2.0366   -2.1217   -0.3010 H   0  0  0  0  0  0  0  0  0 15  0  0
   -0.0405   -1.5160    1.7240 C   0  0  0  0  0  0  0  0  0  8  0  0
    0.4869   -2.3954    1.4003 H   0  0  0  0  0  0  0  0  0  9  0  0
   -2.1649   -4.2988    4.2782 H   0  0  0  0  0  0  0  0  0 43  0  0
   -3.2079   -2.9577    3.7208 H   0  0  0  0  0  0  0  0  0 44  0  0
  1  2  1  0
  1  3  1  0
  3  4  1  0
  4  5  4  0
  5  6  1  0
  5  7  4  0
  7  8  1  0
  8  9  1  0
  9 10  1  0
  9 11  1  0
  9 12  1  0
  7 13  4  0
 13 14  1  0
 13 15  4  0
 15 16  1  0
 16 17  4  0
 17 18  4  0
 18 19  1  0
 19 20  2  0
 19 21  2  0
 19 22  1  6
 22 23  1  0
 23 24  4  0
 24 25  1  0
 24 26  4  0
 26 27  1  0
 26 28  4  0
 28 29  1  0
 28 30  4  0
 30 31  1  0
 30 32  4  0
 32 33  1  0
 22 34  1  0
 22 35  1  0
 18 36  4  0
 36 37  1  0
 37 38  1  0
 37 39  1  0
 36 40  4  0
 40 41  1  0
 15 42  4  0
 42 43  1  0
  1 44  1  0
  1 45  1  0
 42  4  4  0
 40 16  4  0
 32 23  4  0
M  END
>  <sample_id>  (484)
train::COc1cc(OC)cc(-c2cc(N)n(S(=O)(=O)Cc3ccccc3)n2)c1__gen0000

>  <partition>  (484)
BAT_EXTERNAL_CONFIRM

>  <method>  (484)
BA_seed193

>  <candidate>  (484)
primary

$$$$
train::COc1cc(OC)cc(-c2cc(N)n(S(=O)(=O)Cc3ccccc3)n2)c1__gen0001
     RDKit          3D

 45 47  0  0  0  0  0  0  0  0999 V2000
    2.1130   -5.5999    0.8455 C   0  0  0  0  0  0  0  0  0  0  0  0
    2.2846   -5.7693    1.9106 H   0  0  0  0  0  0  0  0  0  1  0  0
    2.1069   -4.2273    0.5400 O   0  0  0  0  0  0  0  0  0  2  0  0
    1.1801   -3.4237    1.1001 C   0  0  0  0  0  0  0  0  0  3  0  0
    0.2020   -3.8651    2.0001 C   0  0  0  0  0  0  0  0  0  4  0  0
    0.1061   -4.9056    2.2902 H   0  0  0  0  0  0  0  0  0 42  0  0
   -0.7183   -2.9647    2.5361 C   0  0  0  0  0  0  0  0  0  5  0  0
   -1.6330   -3.5036    3.3787 O   0  0  0  0  0  0  0  0  0 37  0  0
   -2.5890   -2.6654    3.9708 C   0  0  0  0  0  0  0  0  0 38  0  0
   -3.2271   -2.1865    3.2205 H   0  0  0  0  0  0  0  0  0 39  0  0
   -2.1173   -1.8909    4.5975 H   0  0  0  0  0  0  0  0  0 40  0  0
   -3.1931   -3.2967    4.6164 H   0  0  0  0  0  0  0  0  0 41  0  0
   -0.6507   -1.6183    2.1978 C   0  0  0  0  0  0  0  0  0  6  0  0
   -1.3568   -0.9087    2.5943 H   0  0  0  0  0  0  0  0  0 36  0  0
    0.3385   -1.1751    1.3178 C   0  0  0  0  0  0  0  0  0  7  0  0
    0.4301    0.2242    0.9453 C   0  0  0  0  0  0  0  0  0 10  0  0
    1.3832    0.6723    0.1314 N   0  0  0  0  0  0  0  0  0 11  0  0
    1.2141    2.0116    0.0290 N   0  0  0  0  0  0  0  0  0 12  0  0
    2.1561    2.7780   -1.1434 S   0  0  2  0  0  6  0  0  0 19  0  0
    3.5416    2.5815   -0.8509 O   0  0  0  0  0  0  0  0  0 20  0  0
    1.6769    4.1305   -1.2129 O   0  0  0  0  0  0  0  0  0 21  0  0
    1.6945    1.8715   -2.6541 C   0  0  0  0  0  0  0  0  0 22  0  0
    0.2795    2.2295   -2.9206 C   0  0  0  0  0  0  0  0  0 23  0  0
   -0.0258    3.3763   -3.6491 C   0  0  0  0  0  0  0  0  0 24  0  0
    0.7779    3.9489   -4.0904 H   0  0  0  0  0  0  0  0  0 33  0  0
   -1.3431    3.7640   -3.8251 C   0  0  0  0  0  0  0  0  0 25  0  0
   -1.5621    4.6605   -4.3881 H   0  0  0  0  0  0  0  0  0 32  0  0
   -2.3683    3.0296   -3.2506 C   0  0  0  0  0  0  0  0  0 26  0  0
   -3.3921    3.3389   -3.3831 H   0  0  0  0  0  0  0  0  0 31  0  0
   -2.0650    1.8872   -2.5282 C   0  0  0  0  0  0  0  0  0 27  0  0
   -2.8643    1.3049   -2.0883 H   0  0  0  0  0  0  0  0  0 30  0  0
   -0.7574    1.4879   -2.3644 C   0  0  0  0  0  0  0  0  0 28  0  0
   -0.5337    0.5907   -1.8046 H   0  0  0  0  0  0  0  0  0 29  0  0
    1.8588    0.8231   -2.4152 H   0  0  0  0  0  0  0  0  0 34  0  0
    2.3803    2.2102   -3.4290 H   0  0  0  0  0  0  0  0  0 35  0  0
    0.1141    2.4300    0.7186 C   0  0  0  0  0  0  0  0  0 13  0  0
   -0.2439    3.7272    0.7714 N   0  0  0  0  0  0  0  0  0 16  0  0
   -1.1607    3.9710    1.1129 H   0  0  0  0  0  0  0  0  0 17  0  0
    0.2343    4.3212    0.1085 H   0  0  0  0  0  0  0  0  0 18  0  0
   -0.4014    1.2997    1.3549 C   0  0  0  0  0  0  0  0  0 14  0  0
   -1.2392    1.2575    2.0248 H   0  0  0  0  0  0  0  0  0 15  0  0
    1.2412   -2.0756    0.7779 C   0  0  0  0  0  0  0  0  0  8  0  0
    2.0062   -1.7310    0.0956 H   0  0  0  0  0  0  0  0  0  9  0  0
    1.1822   -6.0856    0.5354 H   0  0  0  0  0  0  0  0  0 43  0  0
    2.9401   -6.0352    0.2758 H   0  0  0  0  0  0  0  0  0 44  0  0
  1  2  1  0
  1  3  1  0
  3  4  1  0
  4  5  4  0
  5  6  1  0
  5  7  4  0
  7  8  1  0
  8  9  1  0
  9 10  1  0
  9 11  1  0
  9 12  1  0
  7 13  4  0
 13 14  1  0
 13 15  4  0
 15 16  1  0
 16 17  4  0
 17 18  4  0
 18 19  1  0
 19 20  2  0
 19 21  2  0
 19 22  1  6
 22 23  1  0
 23 24  4  0
 24 25  1  0
 24 26  4  0
 26 27  1  0
 26 28  4  0
 28 29  1  0
 28 30  4  0
 30 31  1  0
 30 32  4  0
 32 33  1  0
 22 34  1  0
 22 35  1  0
 18 36  4  0
 36 37  1  0
 37 38  1  0
 37 39  1  0
 36 40  4  0
 40 41  1  0
 15 42  4  0
 42 43  1  0
  1 44  1  0
  1 45  1  0
 42  4  4  0
 40 16  4  0
 32 23  4  0
M  END
>  <sample_id>  (485)
train::COc1cc(OC)cc(-c2cc(N)n(S(=O)(=O)Cc3ccccc3)n2)c1__gen0001

>  <partition>  (485)
BAT_EXTERNAL_CONFIRM

>  <method>  (485)
BA_seed193

>  <candidate>  (485)
primary

$$$$
train::COc1cc(OC)cc(-c2cc(N)n(S(=O)(=O)Cc3ccccc3)n2)c1__gen0002
     RDKit          3D

 45 47  0  0  0  0  0  0  0  0999 V2000
   -4.3478   -1.4736   -2.7836 C   0  0  0  0  0  0  0  0  0  0  0  0
   -3.4655   -1.4359   -3.4432 H   0  0  0  0  0  0  0  0  0  1  0  0
   -4.4540   -0.3388   -1.9765 O   0  0  0  0  0  0  0  0  0  2  0  0
   -3.4652   -0.0603   -1.1105 C   0  0  0  0  0  0  0  0  0  3  0  0
   -3.6455    1.0848   -0.3393 C   0  0  0  0  0  0  0  0  0  4  0  0
   -4.5353    1.6756   -0.4902 H   0  0  0  0  0  0  0  0  0 42  0  0
   -2.6963    1.4715    0.5929 C   0  0  0  0  0  0  0  0  0  5  0  0
   -2.9615    2.6198    1.2832 O   0  0  0  0  0  0  0  0  0 37  0  0
   -2.0491    3.0361    2.2887 C   0  0  0  0  0  0  0  0  0 38  0  0
   -1.9764    2.2901    3.0710 H   0  0  0  0  0  0  0  0  0 39  0  0
   -2.4858    3.9422    2.6900 H   0  0  0  0  0  0  0  0  0 40  0  0
   -1.0657    3.2356    1.8721 H   0  0  0  0  0  0  0  0  0 41  0  0
   -1.5458    0.7077    0.7645 C   0  0  0  0  0  0  0  0  0  6  0  0
   -0.7803    0.9922    1.4764 H   0  0  0  0  0  0  0  0  0 36  0  0
   -1.3499   -0.4461    0.0031 C   0  0  0  0  0  0  0  0  0  7  0  0
   -0.1406   -1.2218    0.1825 C   0  0  0  0  0  0  0  0  0 10  0  0
    0.7674   -0.8566    1.0948 N   0  0  0  0  0  0  0  0  0 11  0  0
    1.7398   -1.7724    1.0422 N   0  0  0  0  0  0  0  0  0 12  0  0
    3.2362   -1.4335    1.7816 S   0  0  2  0  0  6  0  0  0 19  0  0
    3.9919   -2.6476    1.7386 O   0  0  0  0  0  0  0  0  0 20  0  0
    2.9717   -0.8391    3.0627 O   0  0  0  0  0  0  0  0  0 21  0  0
    4.0117   -0.2071    0.6684 C   0  0  0  0  0  0  0  0  0 22  0  0
    2.9678    0.7111    0.1488 C   0  0  0  0  0  0  0  0  0 23  0  0
    2.4417    1.6918    0.9662 C   0  0  0  0  0  0  0  0  0 24  0  0
    2.7890    1.7803    1.9884 H   0  0  0  0  0  0  0  0  0 33  0  0
    1.4338    2.5331    0.5150 C   0  0  0  0  0  0  0  0  0 25  0  0
    1.0298    3.2871    1.1645 H   0  0  0  0  0  0  0  0  0 32  0  0
    0.9552    2.3865   -0.7829 C   0  0  0  0  0  0  0  0  0 26  0  0
    0.1671    3.0378   -1.1351 H   0  0  0  0  0  0  0  0  0 31  0  0
    1.4868    1.4171   -1.6148 C   0  0  0  0  0  0  0  0  0 27  0  0
    1.1172    1.3047   -2.6252 H   0  0  0  0  0  0  0  0  0 30  0  0
    2.4833    0.5810   -1.1512 C   0  0  0  0  0  0  0  0  0 28  0  0
    2.9058   -0.1706   -1.8001 H   0  0  0  0  0  0  0  0  0 29  0  0
    4.7476    0.3084    1.2867 H   0  0  0  0  0  0  0  0  0 34  0  0
    4.5241   -0.7846   -0.1010 H   0  0  0  0  0  0  0  0  0 35  0  0
    1.5144   -2.6951    0.0348 C   0  0  0  0  0  0  0  0  0 13  0  0
    2.4193   -3.6538   -0.2913 N   0  0  0  0  0  0  0  0  0 16  0  0
    2.0379   -4.5186   -0.6547 H   0  0  0  0  0  0  0  0  0 17  0  0
    3.1747   -3.7572    0.3737 H   0  0  0  0  0  0  0  0  0 18  0  0
    0.2784   -2.3928   -0.4936 C   0  0  0  0  0  0  0  0  0 14  0  0
   -0.2354   -2.9307   -1.2638 H   0  0  0  0  0  0  0  0  0 15  0  0
   -2.3111   -0.8226   -0.9374 C   0  0  0  0  0  0  0  0  0  8  0  0
   -2.1462   -1.7173   -1.5188 H   0  0  0  0  0  0  0  0  0  9  0  0
   -4.2914   -2.3995   -2.1802 H   0  0  0  0  0  0  0  0  0 43  0  0
   -5.2440   -1.5187   -3.3971 H   0  0  0  0  0  0  0  0  0 44  0  0
  1  2  1  0
  1  3  1  0
  3  4  1  0
  4  5  4  0
  5  6  1  0
  5  7  4  0
  7  8  1  0
  8  9  1  0
  9 10  1  0
  9 11  1  0
  9 12  1  0
  7 13  4  0
 13 14  1  0
 13 15  4  0
 15 16  1  0
 16 17  4  0
 17 18  4  0
 18 19  1  0
 19 20  2  0
 19 21  2  0
 19 22  1  6
 22 23  1  0
 23 24  4  0
 24 25  1  0
 24 26  4  0
 26 27  1  0
 26 28  4  0
 28 29  1  0
 28 30  4  0
 30 31  1  0
 30 32  4  0
 32 33  1  0
 22 34  1  0
 22 35  1  0
 18 36  4  0
 36 37  1  0
 37 38  1  0
 37 39  1  0
 36 40  4  0
 40 41  1  0
 15 42  4  0
 42 43  1  0
  1 44  1  0
  1 45  1  0
 42  4  4  0
 40 16  4  0
 32 23  4  0
M  END
>  <sample_id>  (486)
train::COc1cc(OC)cc(-c2cc(N)n(S(=O)(=O)Cc3ccccc3)n2)c1__gen0002

>  <partition>  (486)
BAT_EXTERNAL_CONFIRM

>  <method>  (486)
BA_seed193

>  <candidate>  (486)
primary

$$$$
train::CCn1c(=O)n(CCc2ccccc2)c(=O)c2c3c(sc21)CCCC3__gen0000
     RDKit          3D

 47 50  0  0  0  0  0  0  0  0999 V2000
   -1.0222    1.4245    3.7489 C   0  0  0  0  0  0  0  0  0  0  0  0
   -0.0783    1.9710    3.6274 H   0  0  0  0  0  0  0  0  0  1  0  0
   -1.1542    1.1958    4.8036 H   0  0  0  0  0  0  0  0  0  2  0  0
   -0.9937    0.1340    2.9294 C   0  0  0  0  0  0  0  0  0  3  0  0
   -0.7868    0.4179    1.5167 N   0  0  0  0  0  0  0  0  0  4  0  0
    0.4736    0.5897    1.0208 C   0  0  0  0  0  0  0  0  0  5  0  0
    1.9330    0.4476    1.9379 S   0  0  0  0  0  0  0  0  0  9  0  0
    2.8722    0.8071    0.5036 C   0  0  0  0  0  0  0  0  0  8  0  0
    2.0904    1.0365   -0.5846 C   0  0  0  0  0  0  0  0  0  7  0  0
    0.7033    0.8946   -0.3122 C   0  0  0  0  0  0  0  0  0  6  0  0
   -0.4074    1.0222   -1.2239 C   0  0  0  0  0  0  0  0  0 22  0  0
   -0.3214    1.2888   -2.4041 O   0  0  0  0  0  0  0  0  0 23  0  0
   -1.6498    0.8289   -0.6246 N   0  0  0  0  0  0  0  0  0 24  0  0
   -2.7999    0.7431   -1.5163 C   0  0  0  0  0  0  0  0  0 27  0  0
   -2.7312    1.5694   -2.2359 H   0  0  0  0  0  0  0  0  0 28  0  0
   -3.6945    0.8599   -0.8988 H   0  0  0  0  0  0  0  0  0 29  0  0
   -2.8000   -0.6071   -2.2396 C   0  0  0  0  0  0  0  0  0 30  0  0
   -2.5507   -1.6953   -1.2354 C   0  0  0  0  0  0  0  0  0 31  0  0
   -3.5827   -2.1749   -0.4378 C   0  0  0  0  0  0  0  0  0 32  0  0
   -4.5855   -1.8191   -0.5863 H   0  0  0  0  0  0  0  0  0 41  0  0
   -3.3145   -3.0895    0.5628 C   0  0  0  0  0  0  0  0  0 33  0  0
   -4.1116   -3.4622    1.1945 H   0  0  0  0  0  0  0  0  0 40  0  0
   -2.0169   -3.5372    0.7755 C   0  0  0  0  0  0  0  0  0 34  0  0
   -1.8048   -4.2449    1.5709 H   0  0  0  0  0  0  0  0  0 39  0  0
   -0.9881   -3.0709   -0.0259 C   0  0  0  0  0  0  0  0  0 35  0  0
    0.0218   -3.4189    0.1313 H   0  0  0  0  0  0  0  0  0 38  0  0
   -1.2579   -2.1568   -1.0226 C   0  0  0  0  0  0  0  0  0 36  0  0
   -0.4580   -1.7930   -1.6509 H   0  0  0  0  0  0  0  0  0 37  0  0
   -3.7643   -0.7356   -2.7390 H   0  0  0  0  0  0  0  0  0 42  0  0
   -2.0050   -0.6065   -2.9887 H   0  0  0  0  0  0  0  0  0 43  0  0
   -1.8863    0.5547    0.7138 C   0  0  0  0  0  0  0  0  0 25  0  0
   -3.0126    0.4458    1.1625 O   0  0  0  0  0  0  0  0  0 26  0  0
    2.6703    1.3839   -1.9170 C   0  0  0  0  0  0  0  0  0 13  0  0
    2.1309    0.8310   -2.6978 H   0  0  0  0  0  0  0  0  0 14  0  0
    2.5191    2.4477   -2.1079 H   0  0  0  0  0  0  0  0  0 15  0  0
    4.1676    1.0547   -1.9645 C   0  0  0  0  0  0  0  0  0 12  0  0
    4.3028   -0.0223   -2.0099 H   0  0  0  0  0  0  0  0  0 16  0  0
    4.6042    1.4983   -2.8610 H   0  0  0  0  0  0  0  0  0 17  0  0
    4.8609    1.6070   -0.7168 C   0  0  0  0  0  0  0  0  0 11  0  0
    4.6516    2.6698   -0.6154 H   0  0  0  0  0  0  0  0  0 18  0  0
    5.9466    1.4776   -0.8064 H   0  0  0  0  0  0  0  0  0 19  0  0
    4.3596    0.8659    0.5283 C   0  0  0  0  0  0  0  0  0 10  0  0
    4.6979    1.3662    1.4397 H   0  0  0  0  0  0  0  0  0 20  0  0
    4.7614   -0.1501    0.5470 H   0  0  0  0  0  0  0  0  0 21  0  0
   -0.1802   -0.5207    3.2692 H   0  0  0  0  0  0  0  0  0 44  0  0
   -1.9562   -0.3775    3.0203 H   0  0  0  0  0  0  0  0  0 45  0  0
   -1.8524    2.0490    3.4193 H   0  0  0  0  0  0  0  0  0 46  0  0
  1  2  1  0
  1  3  1  0
  1  4  1  0
  4  5  1  0
  5  6  4  0
  6  7  4  0
  7  8  4  0
  8  9  4  0
  9 10  4  0
 10 11  4  0
 11 12  1  0
 11 13  4  0
 13 14  1  0
 14 15  1  0
 14 16  1  0
 14 17  1  0
 17 18  1  0
 18 19  4  0
 19 20  1  0
 19 21  4  0
 21 22  1  0
 21 23  4  0
 23 24  1  0
 23 25  4  0
 25 26  1  0
 25 27  4  0
 27 28  1  0
 17 29  1  0
 17 30  1  0
 13 31  4  0
 31 32  2  0
  9 33  1  0
 33 34  1  0
 33 35  1  0
 33 36  1  0
 36 37  1  0
 36 38  1  0
 36 39  1  0
 39 40  1  0
 39 41  1  0
 39 42  1  0
 42 43  1  0
 42 44  1  0
  4 45  1  0
  4 46  1  0
  1 47  1  0
 31  5  4  0
 10  6  1  0
 27 18  4  0
 42  8  1  0
M  CHG  2   7   1  12  -1
M  END
>  <sample_id>  (487)
train::CCn1c(=O)n(CCc2ccccc2)c(=O)c2c3c(sc21)CCCC3__gen0000

>  <partition>  (487)
BAT_EXTERNAL_CONFIRM

>  <method>  (487)
BA_seed193

>  <candidate>  (487)
primary

$$$$
train::CCn1c(=O)n(CCc2ccccc2)c(=O)c2c3c(sc21)CCCC3__gen0001
     RDKit          3D

 47 50  0  0  0  0  0  0  0  0999 V2000
    3.2808    1.4598    1.9029 C   0  0  0  0  0  0  0  0  0  0  0  0
    2.8321    2.4268    1.6736 H   0  0  0  0  0  0  0  0  0  1  0  0
    3.8147    1.5231    2.8443 H   0  0  0  0  0  0  0  0  0  2  0  0
    2.1740    0.3926    2.0186 C   0  0  0  0  0  0  0  0  0  3  0  0
    1.4226    0.2817    0.7830 N   0  0  0  0  0  0  0  0  0  4  0  0
    0.3583    1.0761    0.5243 C   0  0  0  0  0  0  0  0  0  5  0  0
   -0.2646    2.2782    1.6053 S   0  0  0  0  0  0  0  0  0  9  0  0
   -1.4716    2.7258    0.4375 C   0  0  0  0  0  0  0  0  0  8  0  0
   -1.4104    1.9730   -0.6938 C   0  0  0  0  0  0  0  0  0  7  0  0
   -0.3631    1.0062   -0.6545 C   0  0  0  0  0  0  0  0  0  6  0  0
   -0.0055    0.0319   -1.6526 C   0  0  0  0  0  0  0  0  0 22  0  0
   -0.5866   -0.1353   -2.7090 O   0  0  0  0  0  0  0  0  0 23  0  0
    1.1037   -0.7401   -1.3162 N   0  0  0  0  0  0  0  0  0 24  0  0
    1.4134   -1.8491   -2.1936 C   0  0  0  0  0  0  0  0  0 27  0  0
    1.2916   -1.5242   -3.2242 H   0  0  0  0  0  0  0  0  0 28  0  0
    2.4525   -2.1330   -2.0028 H   0  0  0  0  0  0  0  0  0 29  0  0
    0.4742   -3.0286   -1.8903 C   0  0  0  0  0  0  0  0  0 30  0  0
    0.5039   -3.3161   -0.4132 C   0  0  0  0  0  0  0  0  0 31  0  0
   -0.4129   -2.7135    0.4368 C   0  0  0  0  0  0  0  0  0 32  0  0
   -1.1962   -2.0974    0.0157 H   0  0  0  0  0  0  0  0  0 41  0  0
   -0.3242   -2.8781    1.8081 C   0  0  0  0  0  0  0  0  0 33  0  0
   -1.0477   -2.3966    2.4468 H   0  0  0  0  0  0  0  0  0 40  0  0
    0.6864   -3.6549    2.3401 C   0  0  0  0  0  0  0  0  0 34  0  0
    0.7594   -3.7876    3.4093 H   0  0  0  0  0  0  0  0  0 39  0  0
    1.5910   -4.2802    1.5038 C   0  0  0  0  0  0  0  0  0 35  0  0
    2.3754   -4.8990    1.9201 H   0  0  0  0  0  0  0  0  0 38  0  0
    1.4964   -4.1170    0.1296 C   0  0  0  0  0  0  0  0  0 36  0  0
    2.2190   -4.5962   -0.5149 H   0  0  0  0  0  0  0  0  0 37  0  0
    0.7957   -3.8927   -2.4738 H   0  0  0  0  0  0  0  0  0 42  0  0
   -0.5381   -2.7516   -2.1927 H   0  0  0  0  0  0  0  0  0 43  0  0
    1.8474   -0.6419   -0.1539 C   0  0  0  0  0  0  0  0  0 25  0  0
    2.8364   -1.3134    0.0453 O   0  0  0  0  0  0  0  0  0 26  0  0
   -2.3859    2.1494   -1.8155 C   0  0  0  0  0  0  0  0  0 13  0  0
   -1.8544    2.0731   -2.7725 H   0  0  0  0  0  0  0  0  0 14  0  0
   -3.1043    1.3314   -1.7927 H   0  0  0  0  0  0  0  0  0 15  0  0
   -3.1116    3.4888   -1.6965 C   0  0  0  0  0  0  0  0  0 12  0  0
   -3.9454    3.5188   -2.4020 H   0  0  0  0  0  0  0  0  0 16  0  0
   -2.4257    4.2951   -1.9465 H   0  0  0  0  0  0  0  0  0 17  0  0
   -3.6304    3.6870   -0.2724 C   0  0  0  0  0  0  0  0  0 11  0  0
   -4.2501    2.8376    0.0135 H   0  0  0  0  0  0  0  0  0 18  0  0
   -4.2473    4.5852   -0.2225 H   0  0  0  0  0  0  0  0  0 19  0  0
   -2.4550    3.8153    0.6964 C   0  0  0  0  0  0  0  0  0 10  0  0
   -1.9720    4.7893    0.5657 H   0  0  0  0  0  0  0  0  0 20  0  0
   -2.8062    3.7666    1.7368 H   0  0  0  0  0  0  0  0  0 21  0  0
    1.4831    0.6486    2.8207 H   0  0  0  0  0  0  0  0  0 44  0  0
    2.6248   -0.5852    2.2091 H   0  0  0  0  0  0  0  0  0 45  0  0
    3.9725    1.1702    1.1186 H   0  0  0  0  0  0  0  0  0 46  0  0
  1  2  1  0
  1  3  1  0
  1  4  1  0
  4  5  1  0
  5  6  4  0
  6  7  4  0
  7  8  4  0
  8  9  4  0
  9 10  4  0
 10 11  4  0
 11 12  1  0
 11 13  4  0
 13 14  1  0
 14 15  1  0
 14 16  1  0
 14 17  1  0
 17 18  1  0
 18 19  4  0
 19 20  1  0
 19 21  4  0
 21 22  1  0
 21 23  4  0
 23 24  1  0
 23 25  4  0
 25 26  1  0
 25 27  4  0
 27 28  1  0
 17 29  1  0
 17 30  1  0
 13 31  4  0
 31 32  2  0
  9 33  1  0
 33 34  1  0
 33 35  1  0
 33 36  1  0
 36 37  1  0
 36 38  1  0
 36 39  1  0
 39 40  1  0
 39 41  1  0
 39 42  1  0
 42 43  1  0
 42 44  1  0
  4 45  1  0
  4 46  1  0
  1 47  1  0
 31  5  4  0
 10  6  1  0
 27 18  4  0
 42  8  1  0
M  CHG  2   7   1  12  -1
M  END
>  <sample_id>  (488)
train::CCn1c(=O)n(CCc2ccccc2)c(=O)c2c3c(sc21)CCCC3__gen0001

>  <partition>  (488)
BAT_EXTERNAL_CONFIRM

>  <method>  (488)
BA_seed193

>  <candidate>  (488)
primary

$$$$
train::CCn1c(=O)n(CCc2ccccc2)c(=O)c2c3c(sc21)CCCC3__gen0002
     RDKit          3D

 47 50  0  0  0  0  0  0  0  0999 V2000
    0.1565   -1.7270    3.9870 C   0  0  0  0  0  0  0  0  0  0  0  0
    0.0372   -0.6878    4.2820 H   0  0  0  0  0  0  0  0  0  1  0  0
   -0.7533   -2.0747    3.5056 H   0  0  0  0  0  0  0  0  0  2  0  0
    1.3272   -1.8784    3.0108 C   0  0  0  0  0  0  0  0  0  3  0  0
    1.1285   -1.0800    1.8186 N   0  0  0  0  0  0  0  0  0  4  0  0
    1.4055    0.2426    1.8135 C   0  0  0  0  0  0  0  0  0  5  0  0
    2.0698    1.1184    3.1530 S   0  0  0  0  0  0  0  0  0  9  0  0
    2.0474    2.5910    2.2245 C   0  0  0  0  0  0  0  0  0  8  0  0
    1.5610    2.4019    0.9637 C   0  0  0  0  0  0  0  0  0  7  0  0
    1.1676    1.0605    0.7234 C   0  0  0  0  0  0  0  0  0  6  0  0
    0.6241    0.4908   -0.4850 C   0  0  0  0  0  0  0  0  0 22  0  0
    0.3903    1.0954   -1.5124 O   0  0  0  0  0  0  0  0  0 23  0  0
    0.3563   -0.8774   -0.3984 N   0  0  0  0  0  0  0  0  0 24  0  0
   -0.2191   -1.5308   -1.5629 C   0  0  0  0  0  0  0  0  0 27  0  0
    0.1638   -2.5515   -1.6029 H   0  0  0  0  0  0  0  0  0 28  0  0
    0.1019   -0.9684   -2.4398 H   0  0  0  0  0  0  0  0  0 29  0  0
   -1.7508   -1.5429   -1.4477 C   0  0  0  0  0  0  0  0  0 30  0  0
   -2.4503   -2.2737   -2.5769 C   0  0  0  0  0  0  0  0  0 31  0  0
   -1.8415   -2.5864   -3.7863 C   0  0  0  0  0  0  0  0  0 32  0  0
   -0.8140   -2.3132   -3.9621 H   0  0  0  0  0  0  0  0  0 41  0  0
   -2.5493   -3.2363   -4.7794 C   0  0  0  0  0  0  0  0  0 33  0  0
   -2.0606   -3.4542   -5.7202 H   0  0  0  0  0  0  0  0  0 40  0  0
   -3.8779   -3.5754   -4.5923 C   0  0  0  0  0  0  0  0  0 34  0  0
   -4.4130   -4.0933   -5.3719 H   0  0  0  0  0  0  0  0  0 39  0  0
   -4.4937   -3.2808   -3.3924 C   0  0  0  0  0  0  0  0  0 35  0  0
   -5.5285   -3.5367   -3.2304 H   0  0  0  0  0  0  0  0  0 38  0  0
   -3.7886   -2.6190   -2.4035 C   0  0  0  0  0  0  0  0  0 36  0  0
   -4.2828   -2.3867   -1.4645 H   0  0  0  0  0  0  0  0  0 37  0  0
   -2.0250   -2.0292   -0.4998 H   0  0  0  0  0  0  0  0  0 42  0  0
   -2.1040   -0.5112   -1.4176 H   0  0  0  0  0  0  0  0  0 43  0  0
    0.5604   -1.6814    0.7125 C   0  0  0  0  0  0  0  0  0 25  0  0
    0.2880   -2.8635    0.7175 O   0  0  0  0  0  0  0  0  0 26  0  0
    1.4646    3.5128   -0.0350 C   0  0  0  0  0  0  0  0  0 13  0  0
    0.5098    3.4590   -0.5625 H   0  0  0  0  0  0  0  0  0 14  0  0
    2.2480    3.3839   -0.7837 H   0  0  0  0  0  0  0  0  0 15  0  0
    1.6208    4.8733    0.6570 C   0  0  0  0  0  0  0  0  0 12  0  0
    0.7008    5.1089    1.2012 H   0  0  0  0  0  0  0  0  0 16  0  0
    1.7711    5.6475   -0.1011 H   0  0  0  0  0  0  0  0  0 17  0  0
    2.8101    4.8495    1.6211 C   0  0  0  0  0  0  0  0  0 11  0  0
    3.7058    4.5406    1.0884 H   0  0  0  0  0  0  0  0  0 18  0  0
    2.9817    5.8587    2.0122 H   0  0  0  0  0  0  0  0  0 19  0  0
    2.5298    3.8864    2.7787 C   0  0  0  0  0  0  0  0  0 10  0  0
    3.4436    3.7265    3.3669 H   0  0  0  0  0  0  0  0  0 20  0  0
    1.7724    4.3147    3.4434 H   0  0  0  0  0  0  0  0  0 21  0  0
    1.4157   -2.9205    2.6853 H   0  0  0  0  0  0  0  0  0 44  0  0
    2.2576   -1.5542    3.4892 H   0  0  0  0  0  0  0  0  0 45  0  0
    0.3352   -2.3279    4.8730 H   0  0  0  0  0  0  0  0  0 46  0  0
  1  2  1  0
  1  3  1  0
  1  4  1  0
  4  5  1  0
  5  6  4  0
  6  7  4  0
  7  8  4  0
  8  9  4  0
  9 10  4  0
 10 11  4  0
 11 12  1  0
 11 13  4  0
 13 14  1  0
 14 15  1  0
 14 16  1  0
 14 17  1  0
 17 18  1  0
 18 19  4  0
 19 20  1  0
 19 21  4  0
 21 22  1  0
 21 23  4  0
 23 24  1  0
 23 25  4  0
 25 26  1  0
 25 27  4  0
 27 28  1  0
 17 29  1  0
 17 30  1  0
 13 31  4  0
 31 32  2  0
  9 33  1  0
 33 34  1  0
 33 35  1  0
 33 36  1  0
 36 37  1  0
 36 38  1  0
 36 39  1  0
 39 40  1  0
 39 41  1  0
 39 42  1  0
 42 43  1  0
 42 44  1  0
  4 45  1  0
  4 46  1  0
  1 47  1  0
 31  5  4  0
 10  6  1  0
 27 18  4  0
 42  8  1  0
M  CHG  2   7   1  12  -1
M  END
>  <sample_id>  (489)
train::CCn1c(=O)n(CCc2ccccc2)c(=O)c2c3c(sc21)CCCC3__gen0002

>  <partition>  (489)
BAT_EXTERNAL_CONFIRM

>  <method>  (489)
BA_seed193

>  <candidate>  (489)
primary

$$$$
train::CCCc1cc(=O)[nH]c(SCC(=O)N(C)C2CCS(=O)(=O)C2)n1__gen0000
     RDKit          3D

 44 45  0  0  0  0  0  0  0  0999 V2000
   -2.3595   -1.7392   -1.9054 C   0  0  0  0  0  0  0  0  0  0  0  0
   -2.8951   -1.5403   -0.4943 C   0  0  0  0  0  0  0  0  0  1  0  0
   -3.6331   -2.3413   -0.2843 H   0  0  0  0  0  0  0  0  0  2  0  0
   -2.0895   -1.6237    0.2353 H   0  0  0  0  0  0  0  0  0  3  0  0
   -3.5822   -0.1914   -0.2978 C   0  0  0  0  0  0  0  0  0  4  0  0
   -2.6168    0.9376   -0.2308 C   0  0  0  0  0  0  0  0  0  5  0  0
   -2.4165    1.8328   -1.2501 C   0  0  0  0  0  0  0  0  0  6  0  0
   -2.9506    1.7536   -2.1785 H   0  0  0  0  0  0  0  0  0 38  0  0
   -1.5326    2.9461   -1.0919 C   0  0  0  0  0  0  0  0  0  7  0  0
   -1.2528    3.8040   -1.9091 O   0  0  0  0  0  0  0  0  0  8  0  0
   -0.8985    2.9732    0.1758 N   0  0  0  0  0  0  0  0  0  9  0  0
   -0.2615    3.7430    0.3431 H   0  0  0  0  0  0  0  0  0 37  0  0
   -1.1413    2.0319    1.1107 C   0  0  0  0  0  0  0  0  0 10  0  0
   -0.2855    2.1875    2.6340 S   0  0  0  0  0  0  0  0  0 12  0  0
   -0.2451    0.4665    3.1520 C   0  0  0  0  0  0  0  0  0 13  0  0
    0.2204   -0.5039    2.0609 C   0  0  0  0  0  0  0  0  0 14  0  0
   -0.4812   -1.4627    1.8005 O   0  0  0  0  0  0  0  0  0 15  0  0
    1.4272   -0.3196    1.5062 N   0  0  0  0  0  0  0  0  0 16  0  0
    2.4408    0.6497    1.9121 C   0  0  0  0  0  0  0  0  0 17  0  0
    3.1998    0.1660    2.5225 H   0  0  0  0  0  0  0  0  0 18  0  0
    1.9909    1.4498    2.4918 H   0  0  0  0  0  0  0  0  0 19  0  0
    2.9125    1.0738    1.0118 H   0  0  0  0  0  0  0  0  0 20  0  0
    1.7063   -1.1341    0.3447 C   0  0  2  0  0  0  0  0  0 21  0  0
    1.0986   -2.0447    0.4903 H   0  0  0  0  0  0  0  0  0 34  0  0
    3.1797   -1.5349    0.1704 C   0  0  0  0  0  0  0  0  0 22  0  0
    3.7979   -1.2772    1.0200 H   0  0  0  0  0  0  0  0  0 23  0  0
    3.2876   -2.5837   -0.0697 H   0  0  0  0  0  0  0  0  0 24  0  0
    3.7258   -0.5610   -1.2560 S   0  0  1  0  0  6  0  0  0 25  0  0
    3.9272    0.8104   -0.8827 O   0  0  0  0  0  0  0  0  0 26  0  0
    4.7904   -1.2317   -1.9503 O   0  0  0  0  0  0  0  0  0 27  0  0
    2.1308   -0.7078   -2.1041 C   0  0  0  0  0  0  0  0  0 28  0  0
    2.0586    0.0185   -2.9055 H   0  0  0  0  0  0  0  0  0 32  0  0
    2.0566   -1.7162   -2.4814 H   0  0  0  0  0  0  0  0  0 33  0  0
    1.2175   -0.4061   -0.9336 C   0  0  0  0  0  0  0  0  0 29  0  0
    0.1762   -0.6778   -1.1536 H   0  0  0  0  0  0  0  0  0 30  0  0
    1.2368    0.6736   -0.7470 H   0  0  0  0  0  0  0  0  0 31  0  0
   -1.2563    0.1787    3.4456 H   0  0  0  0  0  0  0  0  0 35  0  0
    0.4197    0.4461    4.0241 H   0  0  0  0  0  0  0  0  0 36  0  0
   -1.9500    1.0502    0.9390 N   0  0  0  0  0  0  0  0  0 11  0  0
   -4.2902   -0.0081   -1.1146 H   0  0  0  0  0  0  0  0  0 39  0  0
   -4.1491   -0.2158    0.6374 H   0  0  0  0  0  0  0  0  0 40  0  0
   -3.1828   -1.7343   -2.6243 H   0  0  0  0  0  0  0  0  0 41  0  0
   -1.6907   -0.9352   -2.1865 H   0  0  0  0  0  0  0  0  0 42  0  0
   -1.8405   -2.7023   -1.9767 H   0  0  0  0  0  0  0  0  0 43  0  0
  1  2  1  0
  2  3  1  0
  2  4  1  0
  2  5  1  0
  5  6  1  0
  6  7  4  0
  7  8  1  0
  7  9  4  0
  9 10  2  0
  9 11  4  0
 11 12  1  0
 11 13  4  0
 13 14  1  0
 14 15  1  0
 15 16  1  0
 16 17  2  0
 16 18  1  0
 18 19  1  0
 19 20  1  0
 19 21  1  0
 19 22  1  0
 18 23  1  0
 23 24  1  1
 23 25  1  0
 25 26  1  0
 25 27  1  0
 28 25  1  1
 28 29  2  0
 28 30  2  0
 28 31  1  0
 31 32  1  0
 31 33  1  0
 31 34  1  0
 34 35  1  0
 34 36  1  0
 15 37  1  0
 15 38  1  0
 13 39  4  0
  5 40  1  0
  5 41  1  0
  1 42  1  0
  1 43  1  0
  1 44  1  0
 39  6  4  0
 34 23  1  0
M  END
>  <sample_id>  (490)
train::CCCc1cc(=O)[nH]c(SCC(=O)N(C)C2CCS(=O)(=O)C2)n1__gen0000

>  <partition>  (490)
BAT_EXTERNAL_CONFIRM

>  <method>  (490)
BA_seed193

>  <candidate>  (490)
primary

$$$$
train::CCCc1cc(=O)[nH]c(SCC(=O)N(C)C2CCS(=O)(=O)C2)n1__gen0001
     RDKit          3D

 44 45  0  0  0  0  0  0  0  0999 V2000
    1.2650   -0.6519    2.5599 C   0  0  0  0  0  0  0  0  0  0  0  0
    1.4358    0.8065    2.1238 C   0  0  0  0  0  0  0  0  0  1  0  0
    2.4693    1.1215    2.2916 H   0  0  0  0  0  0  0  0  0  2  0  0
    1.2325    0.8881    1.0519 H   0  0  0  0  0  0  0  0  0  3  0  0
    0.5200    1.7623    2.8795 C   0  0  0  0  0  0  0  0  0  4  0  0
   -0.9266    1.4391    2.6672 C   0  0  0  0  0  0  0  0  0  5  0  0
   -1.7259    0.9675    3.6706 C   0  0  0  0  0  0  0  0  0  6  0  0
   -1.3636    0.7979    4.6658 H   0  0  0  0  0  0  0  0  0 38  0  0
   -3.1307    0.7188    3.4422 C   0  0  0  0  0  0  0  0  0  7  0  0
   -3.9570    0.3055    4.2272 O   0  0  0  0  0  0  0  0  0  8  0  0
   -3.5157    1.0324    2.1283 N   0  0  0  0  0  0  0  0  0  9  0  0
   -4.4954    0.8707    1.8819 H   0  0  0  0  0  0  0  0  0 37  0  0
   -2.6470    1.4773    1.1851 C   0  0  0  0  0  0  0  0  0 10  0  0
   -3.3070    1.8233   -0.3922 S   0  0  0  0  0  0  0  0  0 12  0  0
   -1.8073    1.6933   -1.3649 C   0  0  0  0  0  0  0  0  0 13  0  0
   -1.5018    0.2181   -1.5462 C   0  0  0  0  0  0  0  0  0 14  0  0
   -2.3308   -0.6392   -1.3112 O   0  0  0  0  0  0  0  0  0 15  0  0
   -0.2614   -0.0799   -2.0203 N   0  0  0  0  0  0  0  0  0 16  0  0
    0.7072    0.9401   -2.3689 C   0  0  0  0  0  0  0  0  0 17  0  0
    0.2493    1.6678   -3.0355 H   0  0  0  0  0  0  0  0  0 18  0  0
    1.0892    1.4496   -1.4834 H   0  0  0  0  0  0  0  0  0 19  0  0
    1.5448    0.4753   -2.8920 H   0  0  0  0  0  0  0  0  0 20  0  0
    0.0356   -1.5012   -2.1575 C   0  0  1  0  0  0  0  0  0 21  0  0
   -0.9432   -1.9957   -2.0882 H   0  0  0  0  0  0  0  0  0 34  0  0
    0.7052   -1.8696   -3.4694 C   0  0  0  0  0  0  0  0  0 22  0  0
    0.5047   -1.1738   -4.2789 H   0  0  0  0  0  0  0  0  0 23  0  0
    0.4424   -2.8818   -3.7742 H   0  0  0  0  0  0  0  0  0 24  0  0
    2.5019   -1.8578   -3.1053 S   0  0  1  0  0  6  0  0  0 25  0  0
    3.0612   -3.1426   -3.4302 O   0  0  0  0  0  0  0  0  0 26  0  0
    3.1174   -0.6886   -3.6434 O   0  0  0  0  0  0  0  0  0 27  0  0
    2.3690   -1.7050   -1.2782 C   0  0  0  0  0  0  0  0  0 28  0  0
    3.0667   -2.4006   -0.8287 H   0  0  0  0  0  0  0  0  0 32  0  0
    2.6450   -0.6847   -1.0263 H   0  0  0  0  0  0  0  0  0 33  0  0
    0.9111   -2.0342   -1.0089 C   0  0  0  0  0  0  0  0  0 29  0  0
    0.5759   -1.6132   -0.0616 H   0  0  0  0  0  0  0  0  0 30  0  0
    0.7983   -3.1160   -0.9533 H   0  0  0  0  0  0  0  0  0 31  0  0
   -2.0240    2.1783   -2.3201 H   0  0  0  0  0  0  0  0  0 35  0  0
   -1.0246    2.2370   -0.8353 H   0  0  0  0  0  0  0  0  0 36  0  0
   -1.4053    1.6771    1.4188 N   0  0  0  0  0  0  0  0  0 11  0  0
    0.7022    2.7813    2.5363 H   0  0  0  0  0  0  0  0  0 39  0  0
    0.7382    1.7065    3.9489 H   0  0  0  0  0  0  0  0  0 40  0  0
    1.3971   -0.7317    3.6215 H   0  0  0  0  0  0  0  0  0 41  0  0
    0.2709   -0.9960    2.3073 H   0  0  0  0  0  0  0  0  0 42  0  0
    2.0114   -1.2716    2.0661 H   0  0  0  0  0  0  0  0  0 43  0  0
  1  2  1  0
  2  3  1  0
  2  4  1  0
  2  5  1  0
  5  6  1  0
  6  7  4  0
  7  8  1  0
  7  9  4  0
  9 10  2  0
  9 11  4  0
 11 12  1  0
 11 13  4  0
 13 14  1  0
 14 15  1  0
 15 16  1  0
 16 17  2  0
 16 18  1  0
 18 19  1  0
 19 20  1  0
 19 21  1  0
 19 22  1  0
 18 23  1  0
 23 24  1  1
 23 25  1  0
 25 26  1  0
 25 27  1  0
 28 25  1  6
 28 29  2  0
 28 30  2  0
 28 31  1  0
 31 32  1  0
 31 33  1  0
 31 34  1  0
 34 35  1  0
 34 36  1  0
 15 37  1  0
 15 38  1  0
 13 39  4  0
  5 40  1  0
  5 41  1  0
  1 42  1  0
  1 43  1  0
  1 44  1  0
 39  6  4  0
 34 23  1  0
M  END
>  <sample_id>  (491)
train::CCCc1cc(=O)[nH]c(SCC(=O)N(C)C2CCS(=O)(=O)C2)n1__gen0001

>  <partition>  (491)
BAT_EXTERNAL_CONFIRM

>  <method>  (491)
BA_seed193

>  <candidate>  (491)
primary

$$$$
train::CCCc1cc(=O)[nH]c(SCC(=O)N(C)C2CCS(=O)(=O)C2)n1__gen0002
     RDKit          3D

 44 45  0  0  0  0  0  0  0  0999 V2000
    2.9354   -2.5441   -1.1682 C   0  0  0  0  0  0  0  0  0  0  0  0
    2.2851   -2.7243    0.1907 C   0  0  0  0  0  0  0  0  0  1  0  0
    1.7680   -3.6901    0.2305 H   0  0  0  0  0  0  0  0  0  2  0  0
    3.0577   -2.7430    0.9624 H   0  0  0  0  0  0  0  0  0  3  0  0
    1.2715   -1.6146    0.4753 C   0  0  0  0  0  0  0  0  0  4  0  0
    0.5808   -1.6668    1.7966 C   0  0  0  0  0  0  0  0  0  5  0  0
    1.0114   -2.3758    2.8701 C   0  0  0  0  0  0  0  0  0  6  0  0
    1.8902   -2.9954    2.8407 H   0  0  0  0  0  0  0  0  0 38  0  0
    0.3216   -2.3117    4.1226 C   0  0  0  0  0  0  0  0  0  7  0  0
    0.5960   -2.8657    5.1737 O   0  0  0  0  0  0  0  0  0  8  0  0
   -0.7889   -1.4424    4.0854 N   0  0  0  0  0  0  0  0  0  9  0  0
   -1.3274   -1.3181    4.9378 H   0  0  0  0  0  0  0  0  0 37  0  0
   -1.1726   -0.7962    2.9558 C   0  0  0  0  0  0  0  0  0 10  0  0
   -2.6174    0.1654    3.1179 S   0  0  0  0  0  0  0  0  0 12  0  0
   -2.9352    0.6153    1.3870 C   0  0  0  0  0  0  0  0  0 13  0  0
   -1.8618    1.5878    0.9117 C   0  0  0  0  0  0  0  0  0 14  0  0
   -1.5605    2.5443    1.5824 O   0  0  0  0  0  0  0  0  0 15  0  0
   -1.3484    1.3894   -0.3368 N   0  0  0  0  0  0  0  0  0 16  0  0
   -1.6928    0.2433   -1.1416 C   0  0  0  0  0  0  0  0  0 17  0  0
   -1.0558    0.2005   -2.0344 H   0  0  0  0  0  0  0  0  0 18  0  0
   -2.7312    0.2729   -1.4531 H   0  0  0  0  0  0  0  0  0 19  0  0
   -1.5087   -0.6841   -0.5747 H   0  0  0  0  0  0  0  0  0 20  0  0
   -0.3720    2.3700   -0.7947 C   0  0  1  0  0  0  0  0  0 21  0  0
   -0.2226    3.0313    0.0658 H   0  0  0  0  0  0  0  0  0 34  0  0
    0.9475    1.7529   -1.2105 C   0  0  0  0  0  0  0  0  0 22  0  0
    1.7869    2.4155   -1.0355 H   0  0  0  0  0  0  0  0  0 23  0  0
    1.1065    0.7673   -0.8135 H   0  0  0  0  0  0  0  0  0 24  0  0
    0.8441    1.5695   -3.0224 S   0  0  1  0  0  6  0  0  0 25  0  0
    1.9145    2.2571   -3.6732 O   0  0  0  0  0  0  0  0  0 26  0  0
    0.6732    0.1876   -3.3867 O   0  0  0  0  0  0  0  0  0 27  0  0
   -0.7310    2.4744   -3.2825 C   0  0  0  0  0  0  0  0  0 28  0  0
   -1.5301    1.7624   -3.4505 H   0  0  0  0  0  0  0  0  0 32  0  0
   -0.6031    3.1138   -4.1367 H   0  0  0  0  0  0  0  0  0 33  0  0
   -0.8843    3.2247   -1.9729 C   0  0  0  0  0  0  0  0  0 29  0  0
   -0.2945    4.1452   -2.0085 H   0  0  0  0  0  0  0  0  0 30  0  0
   -1.9287    3.5146   -1.7924 H   0  0  0  0  0  0  0  0  0 31  0  0
   -2.9827   -0.3271    0.8415 H   0  0  0  0  0  0  0  0  0 35  0  0
   -3.8932    1.1123    1.3734 H   0  0  0  0  0  0  0  0  0 36  0  0
   -0.5510   -0.8748    1.8285 N   0  0  0  0  0  0  0  0  0 11  0  0
    1.7866   -0.6422    0.4042 H   0  0  0  0  0  0  0  0  0 39  0  0
    0.5151   -1.6221   -0.3125 H   0  0  0  0  0  0  0  0  0 40  0  0
    3.6200   -3.3604   -1.3830 H   0  0  0  0  0  0  0  0  0 41  0  0
    3.4937   -1.6038   -1.1992 H   0  0  0  0  0  0  0  0  0 42  0  0
    2.1881   -2.5149   -1.9704 H   0  0  0  0  0  0  0  0  0 43  0  0
  1  2  1  0
  2  3  1  0
  2  4  1  0
  2  5  1  0
  5  6  1  0
  6  7  4  0
  7  8  1  0
  7  9  4  0
  9 10  2  0
  9 11  4  0
 11 12  1  0
 11 13  4  0
 13 14  1  0
 14 15  1  0
 15 16  1  0
 16 17  2  0
 16 18  1  0
 18 19  1  0
 19 20  1  0
 19 21  1  0
 19 22  1  0
 18 23  1  0
 23 24  1  6
 23 25  1  0
 25 26  1  0
 25 27  1  0
 28 25  1  1
 28 29  2  0
 28 30  2  0
 28 31  1  0
 31 32  1  0
 31 33  1  0
 31 34  1  0
 34 35  1  0
 34 36  1  0
 15 37  1  0
 15 38  1  0
 13 39  4  0
  5 40  1  0
  5 41  1  0
  1 42  1  0
  1 43  1  0
  1 44  1  0
 39  6  4  0
 34 23  1  0
M  END
>  <sample_id>  (492)
train::CCCc1cc(=O)[nH]c(SCC(=O)N(C)C2CCS(=O)(=O)C2)n1__gen0002

>  <partition>  (492)
BAT_EXTERNAL_CONFIRM

>  <method>  (492)
BA_seed193

>  <candidate>  (492)
primary

$$$$
train::CS(=O)(=O)N1CCc2cc(C(=O)N3CCCCC3)ccc21__gen0000
     RDKit          3D

 41 43  0  0  0  0  0  0  0  0999 V2000
    2.4544    3.0864    3.8378 C   0  0  0  0  0  0  0  0  0  0  0  0
    2.3140    3.3603    2.8050 H   0  0  0  0  0  0  0  0  0  1  0  0
    3.2842    3.6195    4.2832 H   0  0  0  0  0  0  0  0  0  2  0  0
    1.5503    3.2281    4.4272 H   0  0  0  0  0  0  0  0  0  3  0  0
    2.8656    1.3211    3.8891 S   0  0  2  0  0  6  0  0  0  4  0  0
    2.8215    0.8818    5.2489 O   0  0  0  0  0  0  0  0  0  5  0  0
    4.0398    1.0941    3.1112 O   0  0  0  0  0  0  0  0  0  6  0  0
    1.5027    0.6731    3.1424 N   0  0  0  0  0  0  0  0  0  7  0  0
    1.4163    0.4022    1.7924 C   0  0  0  0  0  0  0  0  0  8  0  0
    2.1332    0.9881    0.7534 C   0  0  0  0  0  0  0  0  0  9  0  0
    2.9321    1.6850    0.9524 H   0  0  0  0  0  0  0  0  0 40  0  0
    1.8246    0.6042   -0.5414 C   0  0  0  0  0  0  0  0  0 10  0  0
    2.3892    0.9999   -1.3720 H   0  0  0  0  0  0  0  0  0 39  0  0
    0.8328   -0.3452   -0.7985 C   0  0  0  0  0  0  0  0  0 11  0  0
    0.5931   -0.7852   -2.2083 C   0  0  0  0  0  0  0  0  0 21  0  0
    1.4308   -1.4183   -2.8308 O   0  0  0  0  0  0  0  0  0 22  0  0
   -0.6017   -0.4460   -2.7690 N   0  0  0  0  0  0  0  0  0 23  0  0
   -1.6339    0.3481   -2.1454 C   0  0  0  0  0  0  0  0  0 24  0  0
   -1.2836    0.6878   -1.1629 H   0  0  0  0  0  0  0  0  0 25  0  0
   -1.8198    1.2216   -2.7730 H   0  0  0  0  0  0  0  0  0 38  0  0
   -2.9173   -0.4668   -1.9901 C   0  0  0  0  0  0  0  0  0 26  0  0
   -3.6922    0.1602   -1.5522 H   0  0  0  0  0  0  0  0  0 36  0  0
   -2.7347   -1.3113   -1.3281 H   0  0  0  0  0  0  0  0  0 37  0  0
   -3.3604   -0.9770   -3.3607 C   0  0  0  0  0  0  0  0  0 27  0  0
   -3.6129   -0.1358   -4.0013 H   0  0  0  0  0  0  0  0  0 34  0  0
   -4.2414   -1.6130   -3.2612 H   0  0  0  0  0  0  0  0  0 35  0  0
   -2.2141   -1.7864   -4.0015 C   0  0  0  0  0  0  0  0  0 28  0  0
   -2.4990   -2.1134   -5.0022 H   0  0  0  0  0  0  0  0  0 32  0  0
   -2.0152   -2.6680   -3.3814 H   0  0  0  0  0  0  0  0  0 33  0  0
   -0.9519   -0.9252   -4.0872 C   0  0  0  0  0  0  0  0  0 29  0  0
   -1.1261   -0.0785   -4.7531 H   0  0  0  0  0  0  0  0  0 30  0  0
   -0.1119   -1.5163   -4.4466 H   0  0  0  0  0  0  0  0  0 31  0  0
    0.1119   -0.9018    0.2540 C   0  0  0  0  0  0  0  0  0 12  0  0
   -0.6334   -1.6603    0.0595 H   0  0  0  0  0  0  0  0  0 20  0  0
    0.4254   -0.5358    1.5452 C   0  0  0  0  0  0  0  0  0 13  0  0
   -0.1738   -0.9951    2.8360 C   0  0  0  0  0  0  0  0  0 14  0  0
   -1.2276   -0.7257    2.8963 H   0  0  0  0  0  0  0  0  0 15  0  0
   -0.0974   -2.0844    2.9543 H   0  0  0  0  0  0  0  0  0 16  0  0
    0.6610   -0.2544    3.8992 C   0  0  0  0  0  0  0  0  0 17  0  0
    1.3022   -0.9304    4.4673 H   0  0  0  0  0  0  0  0  0 18  0  0
    0.0632    0.3127    4.6123 H   0  0  0  0  0  0  0  0  0 19  0  0
  1  2  1  0
  1  3  1  0
  1  4  1  0
  5  1  1  1
  5  6  2  0
  5  7  2  0
  5  8  1  0
  8  9  1  0
  9 10  4  0
 10 11  1  0
 10 12  4  0
 12 13  1  0
 12 14  4  0
 14 15  1  0
 15 16  2  0
 15 17  1  0
 17 18  1  0
 18 19  1  0
 18 20  1  0
 18 21  1  0
 21 22  1  0
 21 23  1  0
 21 24  1  0
 24 25  1  0
 24 26  1  0
 24 27  1  0
 27 28  1  0
 27 29  1  0
 27 30  1  0
 30 31  1  0
 30 32  1  0
 14 33  4  0
 33 34  1  0
 33 35  4  0
 35 36  1  0
 36 37  1  0
 36 38  1  0
 36 39  1  0
 39 40  1  0
 39 41  1  0
 39  8  1  0
 35  9  4  0
 30 17  1  0
M  END
>  <sample_id>  (493)
train::CS(=O)(=O)N1CCc2cc(C(=O)N3CCCCC3)ccc21__gen0000

>  <partition>  (493)
BAT_EXTERNAL_CONFIRM

>  <method>  (493)
BA_seed193

>  <candidate>  (493)
primary

$$$$
train::CS(=O)(=O)N1CCc2cc(C(=O)N3CCCCC3)ccc21__gen0001
     RDKit          3D

 41 43  0  0  0  0  0  0  0  0999 V2000
    0.4231    4.7365    1.1260 C   0  0  0  0  0  0  0  0  0  0  0  0
   -0.1564    5.5202    1.5901 H   0  0  0  0  0  0  0  0  0  1  0  0
    1.4804    4.9756    1.1681 H   0  0  0  0  0  0  0  0  0  2  0  0
    0.2216    3.7702    1.5704 H   0  0  0  0  0  0  0  0  0  3  0  0
   -0.0563    4.6761   -0.6112 S   0  0  2  0  0  6  0  0  0  4  0  0
    0.4696    5.8003   -1.3112 O   0  0  0  0  0  0  0  0  0  5  0  0
   -1.4695    4.4067   -0.6706 O   0  0  0  0  0  0  0  0  0  6  0  0
    0.7482    3.3325   -1.2134 N   0  0  0  0  0  0  0  0  0  7  0  0
    0.5654    2.0764   -0.6711 C   0  0  0  0  0  0  0  0  0  8  0  0
   -0.5955    1.5412   -0.1405 C   0  0  0  0  0  0  0  0  0  9  0  0
   -1.4940    2.1334   -0.1057 H   0  0  0  0  0  0  0  0  0 40  0  0
   -0.5539    0.2416    0.3402 C   0  0  0  0  0  0  0  0  0 10  0  0
   -1.4391   -0.1862    0.7681 H   0  0  0  0  0  0  0  0  0 39  0  0
    0.6223   -0.5118    0.2810 C   0  0  0  0  0  0  0  0  0 11  0  0
    0.6963   -1.8705    0.8994 C   0  0  0  0  0  0  0  0  0 21  0  0
    1.4511   -2.1062    1.8233 O   0  0  0  0  0  0  0  0  0 22  0  0
   -0.0993   -2.8493    0.3551 N   0  0  0  0  0  0  0  0  0 23  0  0
   -0.9836   -2.6949   -0.7623 C   0  0  0  0  0  0  0  0  0 24  0  0
   -0.7770   -1.7571   -1.2644 H   0  0  0  0  0  0  0  0  0 25  0  0
   -0.7793   -3.5167   -1.4580 H   0  0  0  0  0  0  0  0  0 38  0  0
   -2.4511   -2.7588   -0.2916 C   0  0  0  0  0  0  0  0  0 26  0  0
   -2.8440   -1.7457   -0.1763 H   0  0  0  0  0  0  0  0  0 36  0  0
   -3.0579   -3.2723   -1.0345 H   0  0  0  0  0  0  0  0  0 37  0  0
   -2.5457   -3.4951    1.0427 C   0  0  0  0  0  0  0  0  0 27  0  0
   -3.5548   -3.8678    1.2099 H   0  0  0  0  0  0  0  0  0 34  0  0
   -2.2966   -2.8290    1.8571 H   0  0  0  0  0  0  0  0  0 35  0  0
   -1.5577   -4.6820    1.0500 C   0  0  0  0  0  0  0  0  0 28  0  0
   -1.7582   -5.3038    0.1713 H   0  0  0  0  0  0  0  0  0 32  0  0
   -1.6902   -5.3032    1.9260 H   0  0  0  0  0  0  0  0  0 33  0  0
   -0.1305   -4.1466    0.9907 C   0  0  0  0  0  0  0  0  0 29  0  0
    0.2884   -4.0255    1.9965 H   0  0  0  0  0  0  0  0  0 30  0  0
    0.5305   -4.8438    0.4536 H   0  0  0  0  0  0  0  0  0 31  0  0
    1.7750    0.0407   -0.2410 C   0  0  0  0  0  0  0  0  0 12  0  0
    2.6856   -0.5413   -0.2693 H   0  0  0  0  0  0  0  0  0 20  0  0
    1.7476    1.3294   -0.7354 C   0  0  0  0  0  0  0  0  0 13  0  0
    2.8364    2.1623   -1.3581 C   0  0  0  0  0  0  0  0  0 14  0  0
    3.1961    1.6975   -2.2693 H   0  0  0  0  0  0  0  0  0 15  0  0
    3.6754    2.2444   -0.6678 H   0  0  0  0  0  0  0  0  0 16  0  0
    2.1508    3.5047   -1.6111 C   0  0  0  0  0  0  0  0  0 17  0  0
    2.5833    4.3407   -1.0750 H   0  0  0  0  0  0  0  0  0 18  0  0
    2.1436    3.7773   -2.6817 H   0  0  0  0  0  0  0  0  0 19  0  0
  1  2  1  0
  1  3  1  0
  1  4  1  0
  5  1  1  1
  5  6  2  0
  5  7  2  0
  5  8  1  0
  8  9  1  0
  9 10  4  0
 10 11  1  0
 10 12  4  0
 12 13  1  0
 12 14  4  0
 14 15  1  0
 15 16  2  0
 15 17  1  0
 17 18  1  0
 18 19  1  0
 18 20  1  0
 18 21  1  0
 21 22  1  0
 21 23  1  0
 21 24  1  0
 24 25  1  0
 24 26  1  0
 24 27  1  0
 27 28  1  0
 27 29  1  0
 27 30  1  0
 30 31  1  0
 30 32  1  0
 14 33  4  0
 33 34  1  0
 33 35  4  0
 35 36  1  0
 36 37  1  0
 36 38  1  0
 36 39  1  0
 39 40  1  0
 39 41  1  0
 39  8  1  0
 35  9  4  0
 30 17  1  0
M  END
>  <sample_id>  (494)
train::CS(=O)(=O)N1CCc2cc(C(=O)N3CCCCC3)ccc21__gen0001

>  <partition>  (494)
BAT_EXTERNAL_CONFIRM

>  <method>  (494)
BA_seed193

>  <candidate>  (494)
primary

$$$$
train::CS(=O)(=O)N1CCc2cc(C(=O)N3CCCCC3)ccc21__gen0002
     RDKit          3D

 41 43  0  0  0  0  0  0  0  0999 V2000
    2.2506    4.5525   -0.8233 C   0  0  0  0  0  0  0  0  0  0  0  0
    1.4345    3.9960   -1.2634 H   0  0  0  0  0  0  0  0  0  1  0  0
    1.9446    5.0895    0.0652 H   0  0  0  0  0  0  0  0  0  2  0  0
    2.6965    5.2222   -1.5499 H   0  0  0  0  0  0  0  0  0  3  0  0
    3.5594    3.3826   -0.3271 S   0  0  2  0  0  6  0  0  0  4  0  0
    4.5255    4.0701    0.4737 O   0  0  0  0  0  0  0  0  0  5  0  0
    3.9815    2.6735   -1.4961 O   0  0  0  0  0  0  0  0  0  6  0  0
    2.7606    2.3044    0.6874 N   0  0  0  0  0  0  0  0  0  7  0  0
    1.6601    1.5946    0.2528 C   0  0  0  0  0  0  0  0  0  8  0  0
    1.4277    1.0923   -1.0209 C   0  0  0  0  0  0  0  0  0  9  0  0
    2.1582    1.2578   -1.8029 H   0  0  0  0  0  0  0  0  0 40  0  0
    0.2550    0.4029   -1.2487 C   0  0  0  0  0  0  0  0  0 10  0  0
    0.0385    0.0149   -2.2261 H   0  0  0  0  0  0  0  0  0 39  0  0
   -0.6551    0.1855   -0.2173 C   0  0  0  0  0  0  0  0  0 11  0  0
   -1.9855   -0.4648   -0.4737 C   0  0  0  0  0  0  0  0  0 21  0  0
   -3.0219    0.1338   -0.3210 O   0  0  0  0  0  0  0  0  0 22  0  0
   -1.9500   -1.7327   -0.9550 N   0  0  0  0  0  0  0  0  0 23  0  0
   -0.8070   -2.6115   -0.9405 C   0  0  0  0  0  0  0  0  0 24  0  0
    0.1008   -2.0310   -0.7124 H   0  0  0  0  0  0  0  0  0 25  0  0
   -0.6910   -3.0606   -1.9405 H   0  0  0  0  0  0  0  0  0 38  0  0
   -0.9876   -3.7105    0.0973 C   0  0  0  0  0  0  0  0  0 26  0  0
   -1.0351   -3.2607    1.0925 H   0  0  0  0  0  0  0  0  0 36  0  0
   -0.1266   -4.3874    0.0736 H   0  0  0  0  0  0  0  0  0 37  0  0
   -2.2754   -4.4826   -0.1735 C   0  0  0  0  0  0  0  0  0 27  0  0
   -2.1966   -4.9880   -1.1354 H   0  0  0  0  0  0  0  0  0 34  0  0
   -2.4288   -5.2400    0.5971 H   0  0  0  0  0  0  0  0  0 35  0  0
   -3.4506   -3.5076   -0.2043 C   0  0  0  0  0  0  0  0  0 28  0  0
   -3.5735   -3.0523    0.7825 H   0  0  0  0  0  0  0  0  0 32  0  0
   -4.3763   -4.0430   -0.4529 H   0  0  0  0  0  0  0  0  0 33  0  0
   -3.1927   -2.4117   -1.2406 C   0  0  0  0  0  0  0  0  0 29  0  0
   -3.9956   -1.6820   -1.2178 H   0  0  0  0  0  0  0  0  0 30  0  0
   -3.1321   -2.8641   -2.2416 H   0  0  0  0  0  0  0  0  0 31  0  0
   -0.4144    0.6940    1.0552 C   0  0  0  0  0  0  0  0  0 12  0  0
   -1.1289    0.5590    1.8597 H   0  0  0  0  0  0  0  0  0 20  0  0
    0.7642    1.3804    1.2924 C   0  0  0  0  0  0  0  0  0 13  0  0
    1.2785    2.0241    2.5438 C   0  0  0  0  0  0  0  0  0 14  0  0
    1.4613    1.2822    3.3067 H   0  0  0  0  0  0  0  0  0 15  0  0
    0.5543    2.7474    2.9287 H   0  0  0  0  0  0  0  0  0 16  0  0
    2.5827    2.6997    2.0732 C   0  0  0  0  0  0  0  0  0 17  0  0
    2.5373    3.7874    2.1531 H   0  0  0  0  0  0  0  0  0 18  0  0
    3.4530    2.3837    2.6503 H   0  0  0  0  0  0  0  0  0 19  0  0
  1  2  1  0
  1  3  1  0
  1  4  1  0
  5  1  1  6
  5  6  2  0
  5  7  2  0
  5  8  1  0
  8  9  1  0
  9 10  4  0
 10 11  1  0
 10 12  4  0
 12 13  1  0
 12 14  4  0
 14 15  1  0
 15 16  2  0
 15 17  1  0
 17 18  1  0
 18 19  1  0
 18 20  1  0
 18 21  1  0
 21 22  1  0
 21 23  1  0
 21 24  1  0
 24 25  1  0
 24 26  1  0
 24 27  1  0
 27 28  1  0
 27 29  1  0
 27 30  1  0
 30 31  1  0
 30 32  1  0
 14 33  4  0
 33 34  1  0
 33 35  4  0
 35 36  1  0
 36 37  1  0
 36 38  1  0
 36 39  1  0
 39 40  1  0
 39 41  1  0
 39  8  1  0
 35  9  4  0
 30 17  1  0
M  END
>  <sample_id>  (495)
train::CS(=O)(=O)N1CCc2cc(C(=O)N3CCCCC3)ccc21__gen0002

>  <partition>  (495)
BAT_EXTERNAL_CONFIRM

>  <method>  (495)
BA_seed193

>  <candidate>  (495)
primary

$$$$
train::NC(=O)C1(c2ccccc2)CCCN1C(=O)c1ccccc1Br__gen0000
     RDKit          3D

 40 42  0  0  0  0  0  0  0  0999 V2000
   -2.3165   -1.3175   -1.5744 N   0  0  0  0  0  0  0  0  0  0  0  0
   -1.7349   -0.1496   -1.8937 C   0  0  0  0  0  0  0  0  0  1  0  0
   -2.2879    0.7424   -2.4923 O   0  0  0  0  0  0  0  0  0  2  0  0
   -0.2227    0.0041   -1.4736 C   0  0  2  0  0  0  0  0  0  3  0  0
    0.5160   -1.3218   -1.5293 C   0  0  0  0  0  0  0  0  0 27  0  0
    1.3937   -1.7250   -0.5281 C   0  0  0  0  0  0  0  0  0 28  0  0
    1.5299   -1.1161    0.3599 H   0  0  0  0  0  0  0  0  0 37  0  0
    2.1067   -2.9085   -0.6494 C   0  0  0  0  0  0  0  0  0 29  0  0
    2.7665   -3.2120    0.1418 H   0  0  0  0  0  0  0  0  0 36  0  0
    1.9470   -3.7124   -1.7596 C   0  0  0  0  0  0  0  0  0 30  0  0
    2.4895   -4.6310   -1.8545 H   0  0  0  0  0  0  0  0  0 35  0  0
    1.0710   -3.3095   -2.7649 C   0  0  0  0  0  0  0  0  0 31  0  0
    0.9566   -3.9206   -3.6468 H   0  0  0  0  0  0  0  0  0 34  0  0
    0.3635   -2.1317   -2.6487 C   0  0  0  0  0  0  0  0  0 32  0  0
   -0.3135   -1.8217   -3.4374 H   0  0  0  0  0  0  0  0  0 33  0  0
   -0.1901    0.6025   -0.1346 N   0  0  0  0  0  0  0  0  0  4  0  0
   -0.7281    0.0205    0.9395 C   0  0  0  0  0  0  0  0  0  5  0  0
   -1.2473   -1.0876    0.9415 O   0  0  0  0  0  0  0  0  0  6  0  0
   -0.6960    0.8439    2.1932 C   0  0  0  0  0  0  0  0  0  7  0  0
   -1.6619    1.8240    2.4346 C   0  0  0  0  0  0  0  0  0  8  0  0
   -2.9544    2.2183    1.1024 Br  0  0  0  0  0  0  0  0  0 17  0  0
   -1.6943    2.5259    3.6295 C   0  0  0  0  0  0  0  0  0  9  0  0
   -2.4464    3.2784    3.7801 H   0  0  0  0  0  0  0  0  0 16  0  0
   -0.7441    2.2523    4.5982 C   0  0  0  0  0  0  0  0  0 10  0  0
   -0.7681    2.7998    5.5248 H   0  0  0  0  0  0  0  0  0 15  0  0
    0.2231    1.2797    4.3855 C   0  0  0  0  0  0  0  0  0 11  0  0
    0.9608    1.0615    5.1468 H   0  0  0  0  0  0  0  0  0 14  0  0
    0.2401    0.5824    3.1911 C   0  0  0  0  0  0  0  0  0 12  0  0
    0.9731   -0.1911    3.0173 H   0  0  0  0  0  0  0  0  0 13  0  0
    0.5020    1.8709   -0.1362 C   0  0  0  0  0  0  0  0  0 18  0  0
   -0.1994    2.6957   -0.1401 H   0  0  0  0  0  0  0  0  0 25  0  0
    1.1503    1.9612    0.7521 H   0  0  0  0  0  0  0  0  0 26  0  0
    1.3249    1.8341   -1.4327 C   0  0  0  0  0  0  0  0  0 19  0  0
    2.2756    1.3233   -1.2720 H   0  0  0  0  0  0  0  0  0 20  0  0
    1.5417    2.8295   -1.8207 H   0  0  0  0  0  0  0  0  0 24  0  0
    0.4310    1.0404   -2.3741 C   0  0  0  0  0  0  0  0  0 21  0  0
    0.9725    0.5816   -3.1946 H   0  0  0  0  0  0  0  0  0 22  0  0
   -0.3508    1.6920   -2.7716 H   0  0  0  0  0  0  0  0  0 23  0  0
   -1.8769   -1.9182   -0.8854 H   0  0  0  0  0  0  0  0  0 38  0  0
   -3.3025   -1.3903   -1.7237 H   0  0  0  0  0  0  0  0  0 39  0  0
  1  2  1  0
  2  3  2  0
  2  4  1  0
  4  5  1  1
  5  6  4  0
  6  7  1  0
  6  8  4  0
  8  9  1  0
  8 10  4  0
 10 11  1  0
 10 12  4  0
 12 13  1  0
 12 14  4  0
 14 15  1  0
  4 16  1  0
 16 17  1  0
 17 18  2  0
 17 19  1  0
 19 20  4  0
 20 21  1  0
 20 22  4  0
 22 23  1  0
 22 24  4  0
 24 25  1  0
 24 26  4  0
 26 27  1  0
 26 28  4  0
 28 29  1  0
 16 30  1  0
 30 31  1  0
 30 32  1  0
 30 33  1  0
 33 34  1  0
 33 35  1  0
 33 36  1  0
 36 37  1  0
 36 38  1  0
  1 39  1  0
  1 40  1  0
 36  4  1  0
 14  5  4  0
 28 19  4  0
M  END
>  <sample_id>  (496)
train::NC(=O)C1(c2ccccc2)CCCN1C(=O)c1ccccc1Br__gen0000

>  <partition>  (496)
BAT_EXTERNAL_CONFIRM

>  <method>  (496)
BA_seed193

>  <candidate>  (496)
primary

$$$$
train::NC(=O)C1(c2ccccc2)CCCN1C(=O)c1ccccc1Br__gen0001
     RDKit          3D

 40 42  0  0  0  0  0  0  0  0999 V2000
    2.8842   -1.0258    0.2019 N   0  0  0  0  0  0  0  0  0  0  0  0
    2.0026   -0.8753   -0.7813 C   0  0  0  0  0  0  0  0  0  1  0  0
    2.3116   -0.5684   -1.9144 O   0  0  0  0  0  0  0  0  0  2  0  0
    0.5371   -1.2143   -0.3823 C   0  0  2  0  0  0  0  0  0  3  0  0
   -0.5209   -0.2761   -0.9651 C   0  0  0  0  0  0  0  0  0 27  0  0
   -0.2573    0.7064   -1.9151 C   0  0  0  0  0  0  0  0  0 28  0  0
    0.7394    0.8287   -2.3043 H   0  0  0  0  0  0  0  0  0 37  0  0
   -1.2744    1.5153   -2.3896 C   0  0  0  0  0  0  0  0  0 29  0  0
   -1.0564    2.2556   -3.1430 H   0  0  0  0  0  0  0  0  0 36  0  0
   -2.5743    1.3498   -1.9333 C   0  0  0  0  0  0  0  0  0 30  0  0
   -3.3773    1.9815   -2.3024 H   0  0  0  0  0  0  0  0  0 35  0  0
   -2.8527    0.3729   -0.9935 C   0  0  0  0  0  0  0  0  0 31  0  0
   -3.8528    0.2346   -0.6172 H   0  0  0  0  0  0  0  0  0 34  0  0
   -1.8253   -0.4233   -0.5046 C   0  0  0  0  0  0  0  0  0 32  0  0
   -2.0527   -1.1812    0.2359 H   0  0  0  0  0  0  0  0  0 33  0  0
    0.3778   -1.2988    1.0618 N   0  0  0  0  0  0  0  0  0  4  0  0
    0.2825   -0.2775    1.9264 C   0  0  0  0  0  0  0  0  0  5  0  0
    0.2275   -0.4709    3.1348 O   0  0  0  0  0  0  0  0  0  6  0  0
    0.2063    1.1110    1.3658 C   0  0  0  0  0  0  0  0  0  7  0  0
   -0.9923    1.8326    1.4901 C   0  0  0  0  0  0  0  0  0  8  0  0
   -2.5020    1.0421    2.3495 Br  0  0  0  0  0  0  0  0  0 17  0  0
   -1.1145    3.1301    1.0098 C   0  0  0  0  0  0  0  0  0  9  0  0
   -2.0517    3.6460    1.0976 H   0  0  0  0  0  0  0  0  0 16  0  0
   -0.0085    3.7341    0.4269 C   0  0  0  0  0  0  0  0  0 10  0  0
   -0.0932    4.7448    0.0382 H   0  0  0  0  0  0  0  0  0 15  0  0
    1.1964    3.0581    0.3476 C   0  0  0  0  0  0  0  0  0 11  0  0
    2.0567    3.5383   -0.0856 H   0  0  0  0  0  0  0  0  0 14  0  0
    1.2946    1.7597    0.8020 C   0  0  0  0  0  0  0  0  0 12  0  0
    2.2346    1.2448    0.7678 H   0  0  0  0  0  0  0  0  0 13  0  0
    0.2958   -2.6744    1.5056 C   0  0  0  0  0  0  0  0  0 18  0  0
   -0.7444   -2.8915    1.7938 H   0  0  0  0  0  0  0  0  0 25  0  0
    0.9203   -2.8153    2.3947 H   0  0  0  0  0  0  0  0  0 26  0  0
    0.7161   -3.5072    0.2984 C   0  0  0  0  0  0  0  0  0 19  0  0
    0.2482   -4.4943    0.2935 H   0  0  0  0  0  0  0  0  0 20  0  0
    1.7992   -3.6511    0.3156 H   0  0  0  0  0  0  0  0  0 24  0  0
    0.2682   -2.6552   -0.8876 C   0  0  0  0  0  0  0  0  0 21  0  0
    0.8484   -2.8496   -1.7960 H   0  0  0  0  0  0  0  0  0 22  0  0
   -0.7946   -2.7995   -1.0956 H   0  0  0  0  0  0  0  0  0 23  0  0
    3.8737   -0.8824    0.0093 H   0  0  0  0  0  0  0  0  0 38  0  0
    2.6238   -1.2544    1.1436 H   0  0  0  0  0  0  0  0  0 39  0  0
  1  2  1  0
  2  3  2  0
  2  4  1  0
  4  5  1  6
  5  6  4  0
  6  7  1  0
  6  8  4  0
  8  9  1  0
  8 10  4  0
 10 11  1  0
 10 12  4  0
 12 13  1  0
 12 14  4  0
 14 15  1  0
  4 16  1  0
 16 17  1  0
 17 18  2  0
 17 19  1  0
 19 20  4  0
 20 21  1  0
 20 22  4  0
 22 23  1  0
 22 24  4  0
 24 25  1  0
 24 26  4  0
 26 27  1  0
 26 28  4  0
 28 29  1  0
 16 30  1  0
 30 31  1  0
 30 32  1  0
 30 33  1  0
 33 34  1  0
 33 35  1  0
 33 36  1  0
 36 37  1  0
 36 38  1  0
  1 39  1  0
  1 40  1  0
 36  4  1  0
 14  5  4  0
 28 19  4  0
M  END
>  <sample_id>  (497)
train::NC(=O)C1(c2ccccc2)CCCN1C(=O)c1ccccc1Br__gen0001

>  <partition>  (497)
BAT_EXTERNAL_CONFIRM

>  <method>  (497)
BA_seed193

>  <candidate>  (497)
primary

$$$$
train::NC(=O)C1(c2ccccc2)CCCN1C(=O)c1ccccc1Br__gen0002
     RDKit          3D

 40 42  0  0  0  0  0  0  0  0999 V2000
    1.6705   -0.3954   -2.7326 N   0  0  0  0  0  0  0  0  0  0  0  0
    1.7400   -0.6984   -1.4116 C   0  0  0  0  0  0  0  0  0  1  0  0
    2.7798   -0.6753   -0.8026 O   0  0  0  0  0  0  0  0  0  2  0  0
    0.4066   -1.1073   -0.7600 C   0  0  2  0  0  0  0  0  0  3  0  0
   -0.6558   -0.0138   -0.7601 C   0  0  0  0  0  0  0  0  0 27  0  0
   -0.4744    1.2272   -1.3506 C   0  0  0  0  0  0  0  0  0 28  0  0
    0.4547    1.4547   -1.8582 H   0  0  0  0  0  0  0  0  0 37  0  0
   -1.4596    2.1967   -1.2595 C   0  0  0  0  0  0  0  0  0 29  0  0
   -1.2933    3.1540   -1.7230 H   0  0  0  0  0  0  0  0  0 36  0  0
   -2.6388    1.9413   -0.5936 C   0  0  0  0  0  0  0  0  0 30  0  0
   -3.3992    2.6969   -0.5116 H   0  0  0  0  0  0  0  0  0 35  0  0
   -2.8253    0.6994   -0.0003 C   0  0  0  0  0  0  0  0  0 31  0  0
   -3.7423    0.4758    0.5303 H   0  0  0  0  0  0  0  0  0 34  0  0
   -1.8492   -0.2641   -0.0851 C   0  0  0  0  0  0  0  0  0 32  0  0
   -2.0042   -1.2240    0.3921 H   0  0  0  0  0  0  0  0  0 33  0  0
    0.6309   -1.5927    0.6104 N   0  0  0  0  0  0  0  0  0  4  0  0
    0.7561   -0.9098    1.7504 C   0  0  0  0  0  0  0  0  0  5  0  0
    0.9951   -1.4731    2.8048 O   0  0  0  0  0  0  0  0  0  6  0  0
    0.5604    0.5820    1.7005 C   0  0  0  0  0  0  0  0  0  7  0  0
   -0.5120    1.1543    2.3822 C   0  0  0  0  0  0  0  0  0  8  0  0
   -1.7613    0.0480    3.2793 Br  0  0  0  0  0  0  0  0  0 17  0  0
   -0.6947    2.5276    2.3950 C   0  0  0  0  0  0  0  0  0  9  0  0
   -1.5585    2.9441    2.9030 H   0  0  0  0  0  0  0  0  0 16  0  0
    0.2080    3.3333    1.7484 C   0  0  0  0  0  0  0  0  0 10  0  0
    0.0580    4.4013    1.7535 H   0  0  0  0  0  0  0  0  0 15  0  0
    1.3120    2.7866    1.1149 C   0  0  0  0  0  0  0  0  0 11  0  0
    2.0388    3.4323    0.6380 H   0  0  0  0  0  0  0  0  0 14  0  0
    1.4913    1.4133    1.0909 C   0  0  0  0  0  0  0  0  0 12  0  0
    2.3546    0.9783    0.6221 H   0  0  0  0  0  0  0  0  0 13  0  0
    0.7532   -3.0396    0.6371 C   0  0  0  0  0  0  0  0  0 18  0  0
   -0.1210   -3.4620    1.1443 H   0  0  0  0  0  0  0  0  0 25  0  0
    1.6405   -3.3295    1.1945 H   0  0  0  0  0  0  0  0  0 26  0  0
    0.7787   -3.4667   -0.8238 C   0  0  0  0  0  0  0  0  0 19  0  0
    1.8001   -3.4244   -1.2064 H   0  0  0  0  0  0  0  0  0 20  0  0
    0.3881   -4.4668   -0.9763 H   0  0  0  0  0  0  0  0  0 24  0  0
   -0.0776   -2.3884   -1.4986 C   0  0  0  0  0  0  0  0  0 21  0  0
    0.0481   -2.3465   -2.5766 H   0  0  0  0  0  0  0  0  0 22  0  0
   -1.1324   -2.5782   -1.2835 H   0  0  0  0  0  0  0  0  0 23  0  0
    2.5038   -0.0859   -3.2098 H   0  0  0  0  0  0  0  0  0 38  0  0
    0.8306   -0.5050   -3.2677 H   0  0  0  0  0  0  0  0  0 39  0  0
  1  2  1  0
  2  3  2  0
  2  4  1  0
  4  5  1  1
  5  6  4  0
  6  7  1  0
  6  8  4  0
  8  9  1  0
  8 10  4  0
 10 11  1  0
 10 12  4  0
 12 13  1  0
 12 14  4  0
 14 15  1  0
  4 16  1  0
 16 17  1  0
 17 18  2  0
 17 19  1  0
 19 20  4  0
 20 21  1  0
 20 22  4  0
 22 23  1  0
 22 24  4  0
 24 25  1  0
 24 26  4  0
 26 27  1  0
 26 28  4  0
 28 29  1  0
 16 30  1  0
 30 31  1  0
 30 32  1  0
 30 33  1  0
 33 34  1  0
 33 35  1  0
 33 36  1  0
 36 37  1  0
 36 38  1  0
  1 39  1  0
  1 40  1  0
 36  4  1  0
 14  5  4  0
 28 19  4  0
M  END
>  <sample_id>  (498)
train::NC(=O)C1(c2ccccc2)CCCN1C(=O)c1ccccc1Br__gen0002

>  <partition>  (498)
BAT_EXTERNAL_CONFIRM

>  <method>  (498)
BA_seed193

>  <candidate>  (498)
primary

$$$$
train::CCOC(=O)Cc1csc(NC(=O)Cc2ccccc2)n1__gen0000
     RDKit          3D

 37 38  0  0  0  0  0  0  0  0999 V2000
   -0.5144   -3.9337    1.2880 C   0  0  0  0  0  0  0  0  0  0  0  0
   -0.1389   -3.0452    0.0965 C   0  0  0  0  0  0  0  0  0  1  0  0
    0.9314   -2.8087    0.1117 H   0  0  0  0  0  0  0  0  0  2  0  0
   -0.3956   -3.5332   -0.8475 H   0  0  0  0  0  0  0  0  0  3  0  0
   -0.8216   -1.7887    0.1961 O   0  0  0  0  0  0  0  0  0  4  0  0
   -1.8630   -1.5921   -0.6032 C   0  0  0  0  0  0  0  0  0  5  0  0
   -2.2312   -2.3379   -1.4771 O   0  0  0  0  0  0  0  0  0  6  0  0
   -2.5218   -0.2383   -0.3134 C   0  0  0  0  0  0  0  0  0  7  0  0
   -1.8805    0.4610    0.8192 C   0  0  0  0  0  0  0  0  0  8  0  0
   -2.0140    0.1596    2.1367 C   0  0  0  0  0  0  0  0  0  9  0  0
   -2.6316   -0.5891    2.5904 H   0  0  0  0  0  0  0  0  0 31  0  0
   -1.0094    1.1704    3.1014 S   0  0  0  0  0  0  0  0  0 10  0  0
   -0.4655    1.9469    1.6084 C   0  0  0  0  0  0  0  0  0 11  0  0
    0.4733    2.9339    1.6895 N   0  0  0  0  0  0  0  0  0 13  0  0
    1.1414    3.5985    0.6980 C   0  0  0  0  0  0  0  0  0 14  0  0
    1.9469    4.4568    0.9871 O   0  0  0  0  0  0  0  0  0 15  0  0
    0.8294    3.1823   -0.7356 C   0  0  0  0  0  0  0  0  0 16  0  0
    1.2256    1.7633   -1.0492 C   0  0  0  0  0  0  0  0  0 17  0  0
    0.5287    1.0534   -2.0190 C   0  0  0  0  0  0  0  0  0 18  0  0
   -0.3102    1.5169   -2.5155 H   0  0  0  0  0  0  0  0  0 27  0  0
    0.8853   -0.2464   -2.3388 C   0  0  0  0  0  0  0  0  0 19  0  0
    0.3264   -0.7891   -3.0890 H   0  0  0  0  0  0  0  0  0 26  0  0
    1.9459   -0.8504   -1.6877 C   0  0  0  0  0  0  0  0  0 20  0  0
    2.2412   -1.8584   -1.9472 H   0  0  0  0  0  0  0  0  0 25  0  0
    2.6510   -0.1509   -0.7218 C   0  0  0  0  0  0  0  0  0 21  0  0
    3.4819   -0.6186   -0.2110 H   0  0  0  0  0  0  0  0  0 24  0  0
    2.2931    1.1449   -0.4071 C   0  0  0  0  0  0  0  0  0 22  0  0
    2.8430    1.6878    0.3439 H   0  0  0  0  0  0  0  0  0 23  0  0
   -0.2395    3.2951   -0.9035 H   0  0  0  0  0  0  0  0  0 28  0  0
    1.3789    3.8647   -1.3834 H   0  0  0  0  0  0  0  0  0 29  0  0
    0.7463    3.2113    2.6273 H   0  0  0  0  0  0  0  0  0 30  0  0
   -1.0186    1.4876    0.5606 N   0  0  0  0  0  0  0  0  0 12  0  0
   -3.5813   -0.4511   -0.1003 H   0  0  0  0  0  0  0  0  0 32  0  0
   -2.4670    0.3615   -1.2158 H   0  0  0  0  0  0  0  0  0 33  0  0
   -1.5630   -4.1832    1.2540 H   0  0  0  0  0  0  0  0  0 34  0  0
    0.0731   -4.8555    1.2439 H   0  0  0  0  0  0  0  0  0 35  0  0
   -0.2754   -3.4254    2.2138 H   0  0  0  0  0  0  0  0  0 36  0  0
  1  2  1  0
  2  3  1  0
  2  4  1  0
  2  5  1  0
  5  6  1  0
  6  7  2  0
  6  8  1  0
  8  9  1  0
  9 10  4  0
 10 11  1  0
 10 12  4  0
 12 13  4  0
 13 14  1  0
 14 15  1  0
 15 16  2  0
 15 17  1  0
 17 18  1  0
 18 19  4  0
 19 20  1  0
 19 21  4  0
 21 22  1  0
 21 23  4  0
 23 24  1  0
 23 25  4  0
 25 26  1  0
 25 27  4  0
 27 28  1  0
 17 29  1  0
 17 30  1  0
 14 31  1  0
 13 32  4  0
  8 33  1  0
  8 34  1  0
  1 35  1  0
  1 36  1  0
  1 37  1  0
 32  9  4  0
 27 18  4  0
M  END
>  <sample_id>  (499)
train::CCOC(=O)Cc1csc(NC(=O)Cc2ccccc2)n1__gen0000

>  <partition>  (499)
BAT_EXTERNAL_CONFIRM

>  <method>  (499)
BA_seed193

>  <candidate>  (499)
primary

$$$$
train::CCOC(=O)Cc1csc(NC(=O)Cc2ccccc2)n1__gen0001
     RDKit          3D

 37 38  0  0  0  0  0  0  0  0999 V2000
    2.6169   -0.8064   -4.1663 C   0  0  0  0  0  0  0  0  0  0  0  0
    2.3081   -0.0571   -2.8786 C   0  0  0  0  0  0  0  0  0  1  0  0
    2.4724    1.0129   -2.9895 H   0  0  0  0  0  0  0  0  0  2  0  0
    2.9237   -0.4497   -2.0601 H   0  0  0  0  0  0  0  0  0  3  0  0
    0.9417   -0.1921   -2.5203 O   0  0  0  0  0  0  0  0  0  4  0  0
    0.5764   -1.2972   -1.8619 C   0  0  0  0  0  0  0  0  0  5  0  0
    1.3409   -2.1749   -1.5579 O   0  0  0  0  0  0  0  0  0  6  0  0
   -0.9268   -1.3207   -1.6040 C   0  0  0  0  0  0  0  0  0  7  0  0
   -1.1787   -1.7189   -0.2007 C   0  0  0  0  0  0  0  0  0  8  0  0
   -0.8828   -2.9387    0.3365 C   0  0  0  0  0  0  0  0  0  9  0  0
   -0.4662   -3.7925   -0.1576 H   0  0  0  0  0  0  0  0  0 31  0  0
   -1.2772   -2.9774    2.0115 S   0  0  0  0  0  0  0  0  0 10  0  0
   -1.8088   -1.3000    1.8579 C   0  0  0  0  0  0  0  0  0 11  0  0
   -2.2712   -0.6693    2.9814 N   0  0  0  0  0  0  0  0  0 13  0  0
   -2.5431    0.6682    3.2002 C   0  0  0  0  0  0  0  0  0 14  0  0
   -2.9602    1.0115    4.2871 O   0  0  0  0  0  0  0  0  0 15  0  0
   -2.3064    1.6021    2.0467 C   0  0  0  0  0  0  0  0  0 16  0  0
   -0.8592    1.6538    1.6279 C   0  0  0  0  0  0  0  0  0 17  0  0
    0.1657    1.4608    2.5483 C   0  0  0  0  0  0  0  0  0 18  0  0
   -0.0763    1.2636    3.5832 H   0  0  0  0  0  0  0  0  0 27  0  0
    1.4885    1.4982    2.1435 C   0  0  0  0  0  0  0  0  0 19  0  0
    2.2759    1.3333    2.8729 H   0  0  0  0  0  0  0  0  0 26  0  0
    1.8112    1.7517    0.8237 C   0  0  0  0  0  0  0  0  0 20  0  0
    2.8447    1.7813    0.5214 H   0  0  0  0  0  0  0  0  0 25  0  0
    0.7976    1.9741   -0.0953 C   0  0  0  0  0  0  0  0  0 21  0  0
    1.0367    2.1885   -1.1300 H   0  0  0  0  0  0  0  0  0 24  0  0
   -0.5241    1.9285    0.3034 C   0  0  0  0  0  0  0  0  0 22  0  0
   -1.3070    2.0728   -0.4245 H   0  0  0  0  0  0  0  0  0 23  0  0
   -2.9058    1.2908    1.1881 H   0  0  0  0  0  0  0  0  0 28  0  0
   -2.6419    2.5995    2.3575 H   0  0  0  0  0  0  0  0  0 29  0  0
   -2.3552   -1.2500    3.8085 H   0  0  0  0  0  0  0  0  0 30  0  0
   -1.6950   -0.8184    0.6756 N   0  0  0  0  0  0  0  0  0 12  0  0
   -1.3698   -2.0462   -2.2887 H   0  0  0  0  0  0  0  0  0 32  0  0
   -1.3288   -0.3245   -1.7964 H   0  0  0  0  0  0  0  0  0 33  0  0
    1.9662   -0.4549   -4.9651 H   0  0  0  0  0  0  0  0  0 34  0  0
    3.6558   -0.6317   -4.4522 H   0  0  0  0  0  0  0  0  0 35  0  0
    2.4620   -1.8708   -4.0261 H   0  0  0  0  0  0  0  0  0 36  0  0
  1  2  1  0
  2  3  1  0
  2  4  1  0
  2  5  1  0
  5  6  1  0
  6  7  2  0
  6  8  1  0
  8  9  1  0
  9 10  4  0
 10 11  1  0
 10 12  4  0
 12 13  4  0
 13 14  1  0
 14 15  1  0
 15 16  2  0
 15 17  1  0
 17 18  1  0
 18 19  4  0
 19 20  1  0
 19 21  4  0
 21 22  1  0
 21 23  4  0
 23 24  1  0
 23 25  4  0
 25 26  1  0
 25 27  4  0
 27 28  1  0
 17 29  1  0
 17 30  1  0
 14 31  1  0
 13 32  4  0
  8 33  1  0
  8 34  1  0
  1 35  1  0
  1 36  1  0
  1 37  1  0
 32  9  4  0
 27 18  4  0
M  END
>  <sample_id>  (500)
train::CCOC(=O)Cc1csc(NC(=O)Cc2ccccc2)n1__gen0001

>  <partition>  (500)
BAT_EXTERNAL_CONFIRM

>  <method>  (500)
BA_seed193

>  <candidate>  (500)
primary

$$$$
train::CCOC(=O)Cc1csc(NC(=O)Cc2ccccc2)n1__gen0002
     RDKit          3D

 37 38  0  0  0  0  0  0  0  0999 V2000
   -3.9609   -3.7162    2.4806 C   0  0  0  0  0  0  0  0  0  0  0  0
   -3.3713   -2.3374    2.2578 C   0  0  0  0  0  0  0  0  0  1  0  0
   -3.9845   -1.7787    1.5449 H   0  0  0  0  0  0  0  0  0  2  0  0
   -3.3474   -1.7680    3.2008 H   0  0  0  0  0  0  0  0  0  3  0  0
   -2.0524   -2.4871    1.7493 O   0  0  0  0  0  0  0  0  0  4  0  0
   -1.3775   -1.3396    1.5615 C   0  0  0  0  0  0  0  0  0  5  0  0
   -1.7957   -0.2494    1.8192 O   0  0  0  0  0  0  0  0  0  6  0  0
   -0.0118   -1.6309    0.9496 C   0  0  0  0  0  0  0  0  0  7  0  0
   -0.0853   -1.2951   -0.5025 C   0  0  0  0  0  0  0  0  0  8  0  0
   -0.2081   -2.1800   -1.5308 C   0  0  0  0  0  0  0  0  0  9  0  0
   -0.2480   -3.2494   -1.4908 H   0  0  0  0  0  0  0  0  0 31  0  0
   -0.3068   -1.3315   -3.0391 S   0  0  0  0  0  0  0  0  0 10  0  0
   -0.2092    0.1705   -2.1236 C   0  0  0  0  0  0  0  0  0 11  0  0
   -0.2321    1.3612   -2.8094 N   0  0  0  0  0  0  0  0  0 13  0  0
   -0.1420    2.6462   -2.3553 C   0  0  0  0  0  0  0  0  0 14  0  0
   -0.2523    3.5579   -3.1578 O   0  0  0  0  0  0  0  0  0 15  0  0
    0.1650    2.8436   -0.8900 C   0  0  0  0  0  0  0  0  0 16  0  0
    1.5602    2.3971   -0.5577 C   0  0  0  0  0  0  0  0  0 17  0  0
    2.6157    2.7183   -1.3976 C   0  0  0  0  0  0  0  0  0 18  0  0
    2.4323    3.2876   -2.2956 H   0  0  0  0  0  0  0  0  0 27  0  0
    3.8990    2.3100   -1.0952 C   0  0  0  0  0  0  0  0  0 19  0  0
    4.7145    2.5548   -1.7613 H   0  0  0  0  0  0  0  0  0 26  0  0
    4.1473    1.5745    0.0536 C   0  0  0  0  0  0  0  0  0 20  0  0
    5.1539    1.2619    0.2944 H   0  0  0  0  0  0  0  0  0 25  0  0
    3.0958    1.2556    0.9072 C   0  0  0  0  0  0  0  0  0 21  0  0
    3.2902    0.6969    1.8128 H   0  0  0  0  0  0  0  0  0 24  0  0
    1.8170    1.6721    0.6008 C   0  0  0  0  0  0  0  0  0 22  0  0
    0.9896    1.4224    1.2529 H   0  0  0  0  0  0  0  0  0 23  0  0
   -0.5605    2.2875   -0.2882 H   0  0  0  0  0  0  0  0  0 28  0  0
    0.0503    3.9158   -0.6830 H   0  0  0  0  0  0  0  0  0 29  0  0
   -0.3758    1.2886   -3.8130 H   0  0  0  0  0  0  0  0  0 30  0  0
   -0.0917    0.0137   -0.8619 N   0  0  0  0  0  0  0  0  0 12  0  0
    0.2539   -2.6768    1.0993 H   0  0  0  0  0  0  0  0  0 32  0  0
    0.7282   -0.9899    1.4304 H   0  0  0  0  0  0  0  0  0 33  0  0
   -3.9891   -4.2861    1.5545 H   0  0  0  0  0  0  0  0  0 34  0  0
   -3.3448   -4.2720    3.1971 H   0  0  0  0  0  0  0  0  0 35  0  0
   -4.9661   -3.6481    2.8860 H   0  0  0  0  0  0  0  0  0 36  0  0
  1  2  1  0
  2  3  1  0
  2  4  1  0
  2  5  1  0
  5  6  1  0
  6  7  2  0
  6  8  1  0
  8  9  1  0
  9 10  4  0
 10 11  1  0
 10 12  4  0
 12 13  4  0
 13 14  1  0
 14 15  1  0
 15 16  2  0
 15 17  1  0
 17 18  1  0
 18 19  4  0
 19 20  1  0
 19 21  4  0
 21 22  1  0
 21 23  4  0
 23 24  1  0
 23 25  4  0
 25 26  1  0
 25 27  4  0
 27 28  1  0
 17 29  1  0
 17 30  1  0
 14 31  1  0
 13 32  4  0
  8 33  1  0
  8 34  1  0
  1 35  1  0
  1 36  1  0
  1 37  1  0
 32  9  4  0
 27 18  4  0
M  END
>  <sample_id>  (501)
train::CCOC(=O)Cc1csc(NC(=O)Cc2ccccc2)n1__gen0002

>  <partition>  (501)
BAT_EXTERNAL_CONFIRM

>  <method>  (501)
BA_seed193

>  <candidate>  (501)
primary

$$$$
train::O=c1oc2ccccc2cc1-c1nc2c(s1)CCc1ccccc1-2__gen0000
     RDKit          3D

 37 41  0  0  0  0  0  0  0  0999 V2000
   -2.7291    0.5718    2.5099 O   0  0  0  0  0  0  0  0  0  0  0  0
   -1.7105    1.2169    2.4981 C   0  0  0  0  0  0  0  0  0  1  0  0
   -0.6479    1.0099    1.5327 C   0  0  0  0  0  0  0  0  0  2  0  0
   -0.8337   -0.0310    0.5565 C   0  0  0  0  0  0  0  0  0 16  0  0
    0.0691   -0.3514   -0.3417 N   0  0  0  0  0  0  0  0  0 17  0  0
   -0.3828   -1.3618   -1.1349 C   0  0  0  0  0  0  0  0  0 18  0  0
   -1.6462   -1.8093   -0.8352 C   0  0  0  0  0  0  0  0  0 19  0  0
   -2.3282   -0.9326    0.4887 S   0  0  0  0  0  0  0  0  0 20  0  0
   -2.2861   -2.9226   -1.5837 C   0  0  0  0  0  0  0  0  0 21  0  0
   -3.3803   -2.8320   -1.5625 H   0  0  0  0  0  0  0  0  0 22  0  0
   -2.0216   -3.8714   -1.1076 H   0  0  0  0  0  0  0  0  0 36  0  0
   -1.7766   -2.9026   -3.0281 C   0  0  0  0  0  0  0  0  0 23  0  0
   -2.1037   -3.8165   -3.5462 H   0  0  0  0  0  0  0  0  0 34  0  0
   -2.2201   -2.0527   -3.5470 H   0  0  0  0  0  0  0  0  0 35  0  0
   -0.2846   -2.7715   -3.1223 C   0  0  0  0  0  0  0  0  0 24  0  0
    0.4452   -3.4021   -4.1179 C   0  0  0  0  0  0  0  0  0 25  0  0
   -0.0665   -4.0406   -4.8196 H   0  0  0  0  0  0  0  0  0 33  0  0
    1.8085   -3.2003   -4.2274 C   0  0  0  0  0  0  0  0  0 26  0  0
    2.3617   -3.7054   -5.0028 H   0  0  0  0  0  0  0  0  0 32  0  0
    2.4693   -2.3689   -3.3318 C   0  0  0  0  0  0  0  0  0 27  0  0
    3.5287   -2.2038   -3.4221 H   0  0  0  0  0  0  0  0  0 31  0  0
    1.7650   -1.7389   -2.3290 C   0  0  0  0  0  0  0  0  0 28  0  0
    2.2561   -1.0857   -1.6184 H   0  0  0  0  0  0  0  0  0 30  0  0
    0.3946   -1.9545   -2.2091 C   0  0  0  0  0  0  0  0  0 29  0  0
    0.5026    1.7822    1.5873 C   0  0  0  0  0  0  0  0  0  3  0  0
    1.2842    1.6086    0.8583 H   0  0  0  0  0  0  0  0  0 15  0  0
    0.6317    2.8030    2.5407 C   0  0  0  0  0  0  0  0  0  4  0  0
    1.7610    3.6289    2.6586 C   0  0  0  0  0  0  0  0  0  5  0  0
    2.5624    3.5006    1.9652 H   0  0  0  0  0  0  0  0  0 14  0  0
    1.8164    4.5897    3.6345 C   0  0  0  0  0  0  0  0  0  6  0  0
    2.6837    5.2330    3.7086 H   0  0  0  0  0  0  0  0  0 13  0  0
    0.7633    4.7475    4.5322 C   0  0  0  0  0  0  0  0  0  7  0  0
    0.8166    5.5121    5.3001 H   0  0  0  0  0  0  0  0  0 12  0  0
   -0.3571    3.9466    4.4666 C   0  0  0  0  0  0  0  0  0  8  0  0
   -1.1815    4.0519    5.1499 H   0  0  0  0  0  0  0  0  0 11  0  0
   -0.4245    2.9642    3.4749 C   0  0  0  0  0  0  0  0  0  9  0  0
   -1.5391    2.1884    3.4246 O   0  0  0  0  0  0  0  0  0 10  0  0
  1  2  2  0
  2  3  4  0
  3  4  1  0
  4  5  4  0
  5  6  4  0
  6  7  4  0
  7  8  4  0
  7  9  1  0
  9 10  1  0
  9 11  1  0
  9 12  1  0
 12 13  1  0
 12 14  1  0
 12 15  1  0
 15 16  4  0
 16 17  1  0
 16 18  4  0
 18 19  1  0
 18 20  4  0
 20 21  1  0
 20 22  4  0
 22 23  1  0
 22 24  4  0
  3 25  4  0
 25 26  1  0
 25 27  4  0
 27 28  4  0
 28 29  1  0
 28 30  4  0
 30 31  1  0
 30 32  4  0
 32 33  1  0
 32 34  4  0
 34 35  1  0
 34 36  4  0
 36 37  4  0
 37  2  4  0
  8  4  4  0
 24 15  4  0
 36 27  4  0
 24  6  1  0
M  END
>  <sample_id>  (502)
train::O=c1oc2ccccc2cc1-c1nc2c(s1)CCc1ccccc1-2__gen0000

>  <partition>  (502)
BAT_EXTERNAL_CONFIRM

>  <method>  (502)
BA_seed193

>  <candidate>  (502)
primary

$$$$
train::O=c1oc2ccccc2cc1-c1nc2c(s1)CCc1ccccc1-2__gen0001
     RDKit          3D

 37 41  0  0  0  0  0  0  0  0999 V2000
    1.2256    2.4608    0.0996 O   0  0  0  0  0  0  0  0  0  0  0  0
    0.9297    2.0663    1.1967 C   0  0  0  0  0  0  0  0  0  1  0  0
    0.3336    0.7695    1.5233 C   0  0  0  0  0  0  0  0  0  2  0  0
    0.0312   -0.1229    0.4513 C   0  0  0  0  0  0  0  0  0 16  0  0
    0.0897    0.1604   -0.8062 N   0  0  0  0  0  0  0  0  0 17  0  0
   -0.2342   -0.8943   -1.5989 C   0  0  0  0  0  0  0  0  0 18  0  0
   -0.5415   -2.0613   -0.9405 C   0  0  0  0  0  0  0  0  0 19  0  0
   -0.4337   -1.8141    0.7735 S   0  0  0  0  0  0  0  0  0 20  0  0
   -0.9113   -3.3225   -1.6411 C   0  0  0  0  0  0  0  0  0 21  0  0
   -0.0040   -3.8891   -1.8644 H   0  0  0  0  0  0  0  0  0 22  0  0
   -1.5538   -3.9538   -1.0150 H   0  0  0  0  0  0  0  0  0 36  0  0
   -1.6307   -2.9373   -2.9486 C   0  0  0  0  0  0  0  0  0 23  0  0
   -2.6209   -2.5576   -2.7155 H   0  0  0  0  0  0  0  0  0 34  0  0
   -1.7592   -3.8373   -3.5779 H   0  0  0  0  0  0  0  0  0 35  0  0
   -0.8758   -1.8921   -3.7275 C   0  0  0  0  0  0  0  0  0 24  0  0
   -0.8404   -1.8941   -5.1071 C   0  0  0  0  0  0  0  0  0 25  0  0
   -1.3392   -2.6815   -5.6684 H   0  0  0  0  0  0  0  0  0 33  0  0
   -0.1947   -0.8826   -5.8099 C   0  0  0  0  0  0  0  0  0 26  0  0
   -0.1956   -0.8960   -6.8875 H   0  0  0  0  0  0  0  0  0 32  0  0
    0.4248    0.1494   -5.1197 C   0  0  0  0  0  0  0  0  0 27  0  0
    0.9229    0.9354   -5.6581 H   0  0  0  0  0  0  0  0  0 31  0  0
    0.4206    0.1592   -3.7455 C   0  0  0  0  0  0  0  0  0 28  0  0
    0.8776    0.9533   -3.1751 H   0  0  0  0  0  0  0  0  0 30  0  0
   -0.2203   -0.8609   -3.0444 C   0  0  0  0  0  0  0  0  0 29  0  0
    0.1023    0.4386    2.8393 C   0  0  0  0  0  0  0  0  0  3  0  0
   -0.3382   -0.5237    3.0712 H   0  0  0  0  0  0  0  0  0 15  0  0
    0.3917    1.3405    3.8846 C   0  0  0  0  0  0  0  0  0  4  0  0
    0.1590    1.0631    5.2464 C   0  0  0  0  0  0  0  0  0  5  0  0
   -0.2541    0.0997    5.5096 H   0  0  0  0  0  0  0  0  0 14  0  0
    0.4553    1.9893    6.2065 C   0  0  0  0  0  0  0  0  0  6  0  0
    0.2861    1.7699    7.2477 H   0  0  0  0  0  0  0  0  0 13  0  0
    1.0063    3.2176    5.8481 C   0  0  0  0  0  0  0  0  0  7  0  0
    1.2462    3.9428    6.6144 H   0  0  0  0  0  0  0  0  0 12  0  0
    1.2429    3.5290    4.5221 C   0  0  0  0  0  0  0  0  0  8  0  0
    1.6673    4.4736    4.2318 H   0  0  0  0  0  0  0  0  0 11  0  0
    0.9460    2.5862    3.5355 C   0  0  0  0  0  0  0  0  0  9  0  0
    1.1890    2.9165    2.2498 O   0  0  0  0  0  0  0  0  0 10  0  0
  1  2  2  0
  2  3  4  0
  3  4  1  0
  4  5  4  0
  5  6  4  0
  6  7  4  0
  7  8  4  0
  7  9  1  0
  9 10  1  0
  9 11  1  0
  9 12  1  0
 12 13  1  0
 12 14  1  0
 12 15  1  0
 15 16  4  0
 16 17  1  0
 16 18  4  0
 18 19  1  0
 18 20  4  0
 20 21  1  0
 20 22  4  0
 22 23  1  0
 22 24  4  0
  3 25  4  0
 25 26  1  0
 25 27  4  0
 27 28  4  0
 28 29  1  0
 28 30  4  0
 30 31  1  0
 30 32  4  0
 32 33  1  0
 32 34  4  0
 34 35  1  0
 34 36  4  0
 36 37  4  0
 37  2  4  0
  8  4  4  0
 24 15  4  0
 36 27  4  0
 24  6  1  0
M  END
>  <sample_id>  (503)
train::O=c1oc2ccccc2cc1-c1nc2c(s1)CCc1ccccc1-2__gen0001

>  <partition>  (503)
BAT_EXTERNAL_CONFIRM

>  <method>  (503)
BA_seed193

>  <candidate>  (503)
primary

$$$$
train::O=c1oc2ccccc2cc1-c1nc2c(s1)CCc1ccccc1-2__gen0002
     RDKit          3D

 37 41  0  0  0  0  0  0  0  0999 V2000
    0.2531   -1.6483   -2.2228 O   0  0  0  0  0  0  0  0  0  0  0  0
    1.2883   -1.5609   -1.6164 C   0  0  0  0  0  0  0  0  0  1  0  0
    1.5386   -0.7092   -0.4493 C   0  0  0  0  0  0  0  0  0  2  0  0
    0.4411    0.0875    0.0562 C   0  0  0  0  0  0  0  0  0 16  0  0
   -0.7844    0.0151   -0.3207 N   0  0  0  0  0  0  0  0  0 17  0  0
   -1.5712    0.8879    0.3535 C   0  0  0  0  0  0  0  0  0 18  0  0
   -0.9492    1.6886    1.2788 C   0  0  0  0  0  0  0  0  0 19  0  0
    0.7448    1.2865    1.3350 S   0  0  0  0  0  0  0  0  0 20  0  0
   -1.6569    2.7122    2.0911 C   0  0  0  0  0  0  0  0  0 21  0  0
   -1.1515    2.9035    3.0345 H   0  0  0  0  0  0  0  0  0 22  0  0
   -1.7012    3.6527    1.5266 H   0  0  0  0  0  0  0  0  0 36  0  0
   -3.0894    2.2091    2.3350 C   0  0  0  0  0  0  0  0  0 23  0  0
   -3.0709    1.3862    3.0434 H   0  0  0  0  0  0  0  0  0 34  0  0
   -3.6939    3.0170    2.7920 H   0  0  0  0  0  0  0  0  0 35  0  0
   -3.7609    1.7371    1.0657 C   0  0  0  0  0  0  0  0  0 24  0  0
   -5.1142    1.9058    0.8364 C   0  0  0  0  0  0  0  0  0 25  0  0
   -5.6971    2.4699    1.5545 H   0  0  0  0  0  0  0  0  0 33  0  0
   -5.7099    1.3968   -0.2949 C   0  0  0  0  0  0  0  0  0 26  0  0
   -6.7694    1.5547   -0.4688 H   0  0  0  0  0  0  0  0  0 32  0  0
   -4.9572    0.6795   -1.2186 C   0  0  0  0  0  0  0  0  0 27  0  0
   -5.4259    0.2746   -2.0940 H   0  0  0  0  0  0  0  0  0 31  0  0
   -3.6115    0.4890   -0.9974 C   0  0  0  0  0  0  0  0  0 28  0  0
   -3.0168   -0.0725   -1.7078 H   0  0  0  0  0  0  0  0  0 30  0  0
   -2.9997    1.0249    0.1316 C   0  0  0  0  0  0  0  0  0 29  0  0
    2.7895   -0.6495    0.1145 C   0  0  0  0  0  0  0  0  0  3  0  0
    2.9742   -0.0068    0.9651 H   0  0  0  0  0  0  0  0  0 15  0  0
    3.8433   -1.4574   -0.3765 C   0  0  0  0  0  0  0  0  0  4  0  0
    5.1404   -1.4719    0.1711 C   0  0  0  0  0  0  0  0  0  5  0  0
    5.3528   -0.8122    0.9997 H   0  0  0  0  0  0  0  0  0 14  0  0
    6.1033   -2.2951   -0.3576 C   0  0  0  0  0  0  0  0  0  6  0  0
    7.1051   -2.2910    0.0601 H   0  0  0  0  0  0  0  0  0 13  0  0
    5.8166   -3.1110   -1.4423 C   0  0  0  0  0  0  0  0  0  7  0  0
    6.5860   -3.7603   -1.8414 H   0  0  0  0  0  0  0  0  0 12  0  0
    4.5525   -3.1275   -1.9998 C   0  0  0  0  0  0  0  0  0  8  0  0
    4.3092   -3.7671   -2.8290 H   0  0  0  0  0  0  0  0  0 11  0  0
    3.5615   -2.3094   -1.4636 C   0  0  0  0  0  0  0  0  0  9  0  0
    2.3310   -2.3285   -2.0438 O   0  0  0  0  0  0  0  0  0 10  0  0
  1  2  2  0
  2  3  4  0
  3  4  1  0
  4  5  4  0
  5  6  4  0
  6  7  4  0
  7  8  4  0
  7  9  1  0
  9 10  1  0
  9 11  1  0
  9 12  1  0
 12 13  1  0
 12 14  1  0
 12 15  1  0
 15 16  4  0
 16 17  1  0
 16 18  4  0
 18 19  1  0
 18 20  4  0
 20 21  1  0
 20 22  4  0
 22 23  1  0
 22 24  4  0
  3 25  4  0
 25 26  1  0
 25 27  4  0
 27 28  4  0
 28 29  1  0
 28 30  4  0
 30 31  1  0
 30 32  4  0
 32 33  1  0
 32 34  4  0
 34 35  1  0
 34 36  4  0
 36 37  4  0
 37  2  4  0
  8  4  4  0
 24 15  4  0
 36 27  4  0
 24  6  1  0
M  END
>  <sample_id>  (504)
train::O=c1oc2ccccc2cc1-c1nc2c(s1)CCc1ccccc1-2__gen0002

>  <partition>  (504)
BAT_EXTERNAL_CONFIRM

>  <method>  (504)
BA_seed193

>  <candidate>  (504)
primary

$$$$
train::Cc1cc(C)nc(SCC(=O)Nc2ccc(S(=O)(=O)Nc3nccs3)cc2)n1__gen0000
     RDKit          3D

 45 47  0  0  0  0  0  0  0  0999 V2000
    0.9638   -2.3915   -6.0854 C   0  0  0  0  0  0  0  0  0  0  0  0
    0.8469   -1.3909   -4.9929 C   0  0  0  0  0  0  0  0  0  1  0  0
   -0.2301   -0.6239   -4.9962 N   0  0  0  0  0  0  0  0  0  2  0  0
   -0.3524    0.2572   -4.0277 C   0  0  0  0  0  0  0  0  0  3  0  0
   -1.8001    1.2604   -4.1144 S   0  0  0  0  0  0  0  0  0 12  0  0
   -1.4526    2.5656   -2.8769 C   0  0  0  0  0  0  0  0  0 13  0  0
   -1.9413    2.2032   -1.4811 C   0  0  0  0  0  0  0  0  0 14  0  0
   -2.8427    2.8049   -0.9375 O   0  0  0  0  0  0  0  0  0 15  0  0
   -1.2370    1.1753   -0.9571 N   0  0  0  0  0  0  0  0  0 16  0  0
   -1.3652    0.5663    0.2687 C   0  0  0  0  0  0  0  0  0 17  0  0
   -0.5195   -0.5095    0.5666 C   0  0  0  0  0  0  0  0  0 18  0  0
    0.1685   -0.8656   -0.1778 H   0  0  0  0  0  0  0  0  0 38  0  0
   -0.6063   -1.1709    1.7778 C   0  0  0  0  0  0  0  0  0 19  0  0
    0.0287   -2.0073    2.0214 H   0  0  0  0  0  0  0  0  0 37  0  0
   -1.5259   -0.7377    2.7145 C   0  0  0  0  0  0  0  0  0 20  0  0
   -1.5981   -1.5158    4.3093 S   0  0  2  0  0  6  0  0  0 25  0  0
   -0.6404   -2.5775    4.3551 O   0  0  0  0  0  0  0  0  0 26  0  0
   -2.9405   -1.7613    4.7336 O   0  0  0  0  0  0  0  0  0 27  0  0
   -1.0597   -0.2540    5.3093 N   0  0  0  0  0  0  0  0  0 28  0  0
    0.2109    0.1769    5.3796 C   0  0  0  0  0  0  0  0  0 29  0  0
    0.6695    1.0210    6.2262 N   0  0  0  0  0  0  0  0  0 30  0  0
    1.9806    1.2798    6.0331 C   0  0  0  0  0  0  0  0  0 31  0  0
    2.4777    1.9641    6.6962 H   0  0  0  0  0  0  0  0  0 35  0  0
    2.5631    0.6136    5.0024 C   0  0  0  0  0  0  0  0  0 32  0  0
    3.5702    0.6647    4.6458 H   0  0  0  0  0  0  0  0  0 34  0  0
    1.3925   -0.4064    4.2165 S   0  0  0  0  0  0  0  0  0 33  0  0
   -1.6810    0.0414    6.0428 H   0  0  0  0  0  0  0  0  0 36  0  0
   -2.3746    0.3185    2.4455 C   0  0  0  0  0  0  0  0  0 21  0  0
   -3.0924    0.6147    3.1973 H   0  0  0  0  0  0  0  0  0 24  0  0
   -2.3109    0.9676    1.2212 C   0  0  0  0  0  0  0  0  0 22  0  0
   -2.9619    1.8027    1.0095 H   0  0  0  0  0  0  0  0  0 23  0  0
   -0.4919    0.8133   -1.5615 H   0  0  0  0  0  0  0  0  0 39  0  0
   -1.9975    3.4354   -3.2291 H   0  0  0  0  0  0  0  0  0 40  0  0
   -0.3819    2.7390   -2.8927 H   0  0  0  0  0  0  0  0  0 41  0  0
    0.4988    0.4646   -3.0196 N   0  0  0  0  0  0  0  0  0  4  0  0
    1.5975   -0.3164   -3.0041 C   0  0  0  0  0  0  0  0  0  5  0  0
    2.5573   -0.0873   -1.8962 C   0  0  0  0  0  0  0  0  0  8  0  0
    2.9013   -1.0290   -1.4853 H   0  0  0  0  0  0  0  0  0  9  0  0
    3.4223    0.4629   -2.2632 H   0  0  0  0  0  0  0  0  0 10  0  0
    2.0826    0.5030   -1.1123 H   0  0  0  0  0  0  0  0  0 11  0  0
    1.8067   -1.2665   -3.9903 C   0  0  0  0  0  0  0  0  0  6  0  0
    2.6935   -1.8725   -3.9901 H   0  0  0  0  0  0  0  0  0  7  0  0
    1.0587   -3.3988   -5.6689 H   0  0  0  0  0  0  0  0  0 42  0  0
    0.0743   -2.3538   -6.7135 H   0  0  0  0  0  0  0  0  0 43  0  0
    1.8386   -2.1795   -6.6986 H   0  0  0  0  0  0  0  0  0 44  0  0
  1  2  1  0
  2  3  4  0
  3  4  4  0
  4  5  1  0
  5  6  1  0
  6  7  1  0
  7  8  2  0
  7  9  1  0
  9 10  1  0
 10 11  4  0
 11 12  1  0
 11 13  4  0
 13 14  1  0
 13 15  4  0
 15 16  1  0
 16 17  2  0
 16 18  2  0
 16 19  1  1
 19 20  1  0
 20 21  4  0
 21 22  4  0
 22 23  1  0
 22 24  4  0
 24 25  1  0
 24 26  4  0
 19 27  1  0
 15 28  4  0
 28 29  1  0
 28 30  4  0
 30 31  1  0
  9 32  1  0
  6 33  1  0
  6 34  1  0
  4 35  4  0
 35 36  4  0
 36 37  1  0
 37 38  1  0
 37 39  1  0
 37 40  1  0
 36 41  4  0
 41 42  1  0
  1 43  1  0
  1 44  1  0
  1 45  1  0
 41  2  4  0
 30 10  4  0
 26 20  4  0
M  END
>  <sample_id>  (505)
train::Cc1cc(C)nc(SCC(=O)Nc2ccc(S(=O)(=O)Nc3nccs3)cc2)n1__gen0000

>  <partition>  (505)
BAT_EXTERNAL_CONFIRM

>  <method>  (505)
BA_seed193

>  <candidate>  (505)
primary

$$$$
train::Cc1cc(C)nc(SCC(=O)Nc2ccc(S(=O)(=O)Nc3nccs3)cc2)n1__gen0001
     RDKit          3D

 45 47  0  0  0  0  0  0  0  0999 V2000
   -1.8565    1.3909   -0.9595 C   0  0  0  0  0  0  0  0  0  0  0  0
   -0.6579    0.9888   -1.7466 C   0  0  0  0  0  0  0  0  0  1  0  0
    0.4396    1.7176   -1.5593 N   0  0  0  0  0  0  0  0  0  2  0  0
    1.5172    1.3817   -2.2478 C   0  0  0  0  0  0  0  0  0  3  0  0
    2.9453    2.3646   -2.0018 S   0  0  0  0  0  0  0  0  0 12  0  0
    2.2080    3.6964   -0.9944 C   0  0  0  0  0  0  0  0  0 13  0  0
    1.3982    3.1875    0.2037 C   0  0  0  0  0  0  0  0  0 14  0  0
    0.4117    3.7704    0.5776 O   0  0  0  0  0  0  0  0  0 15  0  0
    1.9611    2.0868    0.8012 N   0  0  0  0  0  0  0  0  0 16  0  0
    1.3226    1.1886    1.6443 C   0  0  0  0  0  0  0  0  0 17  0  0
    0.1450    1.5166    2.3318 C   0  0  0  0  0  0  0  0  0 18  0  0
   -0.2765    2.5104    2.2433 H   0  0  0  0  0  0  0  0  0 38  0  0
   -0.4930    0.5408    3.0813 C   0  0  0  0  0  0  0  0  0 19  0  0
   -1.4093    0.7647    3.6009 H   0  0  0  0  0  0  0  0  0 37  0  0
    0.0428   -0.7240    3.1467 C   0  0  0  0  0  0  0  0  0 20  0  0
   -0.9158   -2.0110    3.9194 S   0  0  2  0  0  6  0  0  0 25  0  0
   -1.5857   -1.5471    5.0962 O   0  0  0  0  0  0  0  0  0 26  0  0
   -0.1880   -3.2315    3.9791 O   0  0  0  0  0  0  0  0  0 27  0  0
   -2.1728   -2.1520    2.7547 N   0  0  0  0  0  0  0  0  0 28  0  0
   -1.9234   -2.4220    1.4637 C   0  0  0  0  0  0  0  0  0 29  0  0
   -0.7562   -2.3654    0.9405 N   0  0  0  0  0  0  0  0  0 30  0  0
   -0.7776   -2.6442   -0.3931 C   0  0  0  0  0  0  0  0  0 31  0  0
    0.1294   -2.6301   -0.9327 H   0  0  0  0  0  0  0  0  0 35  0  0
   -2.0069   -2.9118   -0.9002 C   0  0  0  0  0  0  0  0  0 32  0  0
   -2.2868   -3.1467   -1.9028 H   0  0  0  0  0  0  0  0  0 34  0  0
   -3.2083   -2.7897    0.3261 S   0  0  0  0  0  0  0  0  0 33  0  0
   -3.0942   -2.2856    3.1547 H   0  0  0  0  0  0  0  0  0 36  0  0
    1.2233   -1.0453    2.5259 C   0  0  0  0  0  0  0  0  0 21  0  0
    1.6086   -2.0524    2.6109 H   0  0  0  0  0  0  0  0  0 24  0  0
    1.8726   -0.0816    1.7835 C   0  0  0  0  0  0  0  0  0 22  0  0
    2.7881   -0.3239    1.2683 H   0  0  0  0  0  0  0  0  0 23  0  0
    2.7709    1.7130    0.3190 H   0  0  0  0  0  0  0  0  0 39  0  0
    3.0314    4.3035   -0.6309 H   0  0  0  0  0  0  0  0  0 40  0  0
    1.5560    4.2978   -1.6210 H   0  0  0  0  0  0  0  0  0 41  0  0
    1.6280    0.3906   -3.1060 N   0  0  0  0  0  0  0  0  0  4  0  0
    0.5467   -0.3568   -3.2901 C   0  0  0  0  0  0  0  0  0  5  0  0
    0.6600   -1.4902   -4.2633 C   0  0  0  0  0  0  0  0  0  8  0  0
    1.6909   -1.5911   -4.5853 H   0  0  0  0  0  0  0  0  0  9  0  0
    0.0210   -1.3138   -5.1226 H   0  0  0  0  0  0  0  0  0 10  0  0
    0.3584   -2.4234   -3.7905 H   0  0  0  0  0  0  0  0  0 11  0  0
   -0.6510   -0.0821   -2.6264 C   0  0  0  0  0  0  0  0  0  6  0  0
   -1.5351   -0.6706   -2.7898 H   0  0  0  0  0  0  0  0  0  7  0  0
   -2.4947    2.0357   -1.5655 H   0  0  0  0  0  0  0  0  0 42  0  0
   -2.4432    0.5092   -0.6706 H   0  0  0  0  0  0  0  0  0 43  0  0
   -1.5436    1.9367   -0.0725 H   0  0  0  0  0  0  0  0  0 44  0  0
  1  2  1  0
  2  3  4  0
  3  4  4  0
  4  5  1  0
  5  6  1  0
  6  7  1  0
  7  8  2  0
  7  9  1  0
  9 10  1  0
 10 11  4  0
 11 12  1  0
 11 13  4  0
 13 14  1  0
 13 15  4  0
 15 16  1  0
 16 17  2  0
 16 18  2  0
 16 19  1  6
 19 20  1  0
 20 21  4  0
 21 22  4  0
 22 23  1  0
 22 24  4  0
 24 25  1  0
 24 26  4  0
 19 27  1  0
 15 28  4  0
 28 29  1  0
 28 30  4  0
 30 31  1  0
  9 32  1  0
  6 33  1  0
  6 34  1  0
  4 35  4  0
 35 36  4  0
 36 37  1  0
 37 38  1  0
 37 39  1  0
 37 40  1  0
 36 41  4  0
 41 42  1  0
  1 43  1  0
  1 44  1  0
  1 45  1  0
 41  2  4  0
 30 10  4  0
 26 20  4  0
M  END
>  <sample_id>  (506)
train::Cc1cc(C)nc(SCC(=O)Nc2ccc(S(=O)(=O)Nc3nccs3)cc2)n1__gen0001

>  <partition>  (506)
BAT_EXTERNAL_CONFIRM

>  <method>  (506)
BA_seed193

>  <candidate>  (506)
primary

$$$$
train::Cc1cc(C)nc(SCC(=O)Nc2ccc(S(=O)(=O)Nc3nccs3)cc2)n1__gen0002
     RDKit          3D

 45 47  0  0  0  0  0  0  0  0999 V2000
    2.6102    2.5828   -0.5570 C   0  0  0  0  0  0  0  0  0  0  0  0
    3.1553    1.2402   -0.9195 C   0  0  0  0  0  0  0  0  0  1  0  0
    2.5518    0.5945   -1.9145 N   0  0  0  0  0  0  0  0  0  2  0  0
    3.0387   -0.5885   -2.2433 C   0  0  0  0  0  0  0  0  0  3  0  0
    2.1709   -1.4091   -3.5350 S   0  0  0  0  0  0  0  0  0 12  0  0
    1.0473   -0.0374   -4.0233 C   0  0  0  0  0  0  0  0  0 13  0  0
    0.3372    0.6120   -2.8451 C   0  0  0  0  0  0  0  0  0 14  0  0
    0.1126    1.8034   -2.8324 O   0  0  0  0  0  0  0  0  0 15  0  0
   -0.1166   -0.2942   -1.9304 N   0  0  0  0  0  0  0  0  0 16  0  0
   -0.6572   -0.0434   -0.6740 C   0  0  0  0  0  0  0  0  0 17  0  0
   -1.0672    1.2325   -0.2687 C   0  0  0  0  0  0  0  0  0 18  0  0
   -0.9751    2.0587   -0.9516 H   0  0  0  0  0  0  0  0  0 38  0  0
   -1.6008    1.4077    0.9881 C   0  0  0  0  0  0  0  0  0 19  0  0
   -1.9088    2.3856    1.3230 H   0  0  0  0  0  0  0  0  0 37  0  0
   -1.7050    0.3300    1.8480 C   0  0  0  0  0  0  0  0  0 20  0  0
   -2.5009    0.5795    3.4441 S   0  0  2  0  0  6  0  0  0 25  0  0
   -2.1605    1.8741    3.9512 O   0  0  0  0  0  0  0  0  0 26  0  0
   -2.2731   -0.5806    4.2497 O   0  0  0  0  0  0  0  0  0 27  0  0
   -4.1325    0.6491    3.0402 N   0  0  0  0  0  0  0  0  0 28  0  0
   -4.7539   -0.4177    2.4676 C   0  0  0  0  0  0  0  0  0 29  0  0
   -5.7763   -0.3307    1.6806 N   0  0  0  0  0  0  0  0  0 30  0  0
   -6.2155   -1.5613    1.3155 C   0  0  0  0  0  0  0  0  0 31  0  0
   -7.0603   -1.6390    0.6465 H   0  0  0  0  0  0  0  0  0 35  0  0
   -5.5107   -2.6084    1.8223 C   0  0  0  0  0  0  0  0  0 32  0  0
   -5.6715   -3.6633    1.6761 H   0  0  0  0  0  0  0  0  0 34  0  0
   -4.2246   -2.0398    2.8449 S   0  0  0  0  0  0  0  0  0 33  0  0
   -4.4840    1.5627    2.7618 H   0  0  0  0  0  0  0  0  0 36  0  0
   -1.3031   -0.9393    1.4757 C   0  0  0  0  0  0  0  0  0 21  0  0
   -1.4154   -1.7502    2.1737 H   0  0  0  0  0  0  0  0  0 24  0  0
   -0.7755   -1.1218    0.2112 C   0  0  0  0  0  0  0  0  0 22  0  0
   -0.4491   -2.1031   -0.0943 H   0  0  0  0  0  0  0  0  0 23  0  0
    0.1587   -1.2546   -2.0776 H   0  0  0  0  0  0  0  0  0 39  0  0
    0.3204   -0.4832   -4.6985 H   0  0  0  0  0  0  0  0  0 40  0  0
    1.6345    0.7193   -4.5470 H   0  0  0  0  0  0  0  0  0 41  0  0
    4.0681   -1.2171   -1.7421 N   0  0  0  0  0  0  0  0  0  4  0  0
    4.6838   -0.5732   -0.7327 C   0  0  0  0  0  0  0  0  0  5  0  0
    5.8734   -1.2697   -0.1337 C   0  0  0  0  0  0  0  0  0  8  0  0
    5.7186   -1.4272    0.9334 H   0  0  0  0  0  0  0  0  0  9  0  0
    6.0149   -2.2269   -0.6258 H   0  0  0  0  0  0  0  0  0 10  0  0
    6.7644   -0.6581   -0.2645 H   0  0  0  0  0  0  0  0  0 11  0  0
    4.2620    0.6767   -0.3031 C   0  0  0  0  0  0  0  0  0  6  0  0
    4.7767    1.1833    0.5014 H   0  0  0  0  0  0  0  0  0  7  0  0
    2.5200    2.6810    0.5240 H   0  0  0  0  0  0  0  0  0 42  0  0
    1.6420    2.7071   -1.0360 H   0  0  0  0  0  0  0  0  0 43  0  0
    3.2760    3.3577   -0.9287 H   0  0  0  0  0  0  0  0  0 44  0  0
  1  2  1  0
  2  3  4  0
  3  4  4  0
  4  5  1  0
  5  6  1  0
  6  7  1  0
  7  8  2  0
  7  9  1  0
  9 10  1  0
 10 11  4  0
 11 12  1  0
 11 13  4  0
 13 14  1  0
 13 15  4  0
 15 16  1  0
 16 17  2  0
 16 18  2  0
 16 19  1  6
 19 20  1  0
 20 21  4  0
 21 22  4  0
 22 23  1  0
 22 24  4  0
 24 25  1  0
 24 26  4  0
 19 27  1  0
 15 28  4  0
 28 29  1  0
 28 30  4  0
 30 31  1  0
  9 32  1  0
  6 33  1  0
  6 34  1  0
  4 35  4  0
 35 36  4  0
 36 37  1  0
 37 38  1  0
 37 39  1  0
 37 40  1  0
 36 41  4  0
 41 42  1  0
  1 43  1  0
  1 44  1  0
  1 45  1  0
 41  2  4  0
 30 10  4  0
 26 20  4  0
M  END
>  <sample_id>  (507)
train::Cc1cc(C)nc(SCC(=O)Nc2ccc(S(=O)(=O)Nc3nccs3)cc2)n1__gen0002

>  <partition>  (507)
BAT_EXTERNAL_CONFIRM

>  <method>  (507)
BA_seed193

>  <candidate>  (507)
primary

$$$$
train::CCc1ccc(N(CC)C(=O)c2cn(C)c(=O)c3ccccc23)cc1__gen0000
     RDKit          3D

 47 49  0  0  0  0  0  0  0  0999 V2000
    0.6921    3.4536   -4.1884 C   0  0  0  0  0  0  0  0  0  0  0  0
    1.4916    3.9790   -3.6659 H   0  0  0  0  0  0  0  0  0  1  0  0
   -0.2548    3.9403   -3.9786 H   0  0  0  0  0  0  0  0  0  2  0  0
    0.9035    3.5348   -5.2576 H   0  0  0  0  0  0  0  0  0  3  0  0
    0.6520    1.9826   -3.7836 C   0  0  0  0  0  0  0  0  0  4  0  0
    0.2675    1.7666   -2.3310 C   0  0  0  0  0  0  0  0  0  5  0  0
    0.8009    2.5516   -1.3099 C   0  0  0  0  0  0  0  0  0  6  0  0
    1.5066    3.3273   -1.5460 H   0  0  0  0  0  0  0  0  0 44  0  0
    0.4514    2.3411    0.0102 C   0  0  0  0  0  0  0  0  0  7  0  0
    0.8780    2.9467    0.7878 H   0  0  0  0  0  0  0  0  0 43  0  0
   -0.4573    1.3402    0.3320 C   0  0  0  0  0  0  0  0  0  8  0  0
   -0.8603    1.1098    1.6799 N   0  0  0  0  0  0  0  0  0 13  0  0
   -0.7668   -0.1032    2.2680 C   0  0  0  0  0  0  0  0  0 14  0  0
   -1.2625   -0.3338    3.3639 O   0  0  0  0  0  0  0  0  0 15  0  0
   -0.0343   -1.1632    1.4973 C   0  0  0  0  0  0  0  0  0 16  0  0
    1.2079   -0.9192    1.0037 C   0  0  0  0  0  0  0  0  0 17  0  0
    1.7121    0.0309    1.1642 H   0  0  0  0  0  0  0  0  0 35  0  0
    1.9217   -1.8398    0.3251 N   0  0  0  0  0  0  0  0  0 18  0  0
    3.2245   -1.4778   -0.2036 C   0  0  0  0  0  0  0  0  0 31  0  0
    3.1077   -0.9122   -1.1284 H   0  0  0  0  0  0  0  0  0 32  0  0
    3.7759   -2.3959   -0.4108 H   0  0  0  0  0  0  0  0  0 33  0  0
    3.7637   -0.8706    0.5212 H   0  0  0  0  0  0  0  0  0 34  0  0
    1.4417   -3.1243    0.0352 C   0  0  0  0  0  0  0  0  0 19  0  0
    2.1236   -3.8970   -0.6077 O   0  0  0  0  0  0  0  0  0 20  0  0
    0.1332   -3.4156    0.5774 C   0  0  0  0  0  0  0  0  0 21  0  0
   -0.4069   -4.6867    0.3507 C   0  0  0  0  0  0  0  0  0 22  0  0
    0.1980   -5.3924   -0.1949 H   0  0  0  0  0  0  0  0  0 30  0  0
   -1.6424   -5.0147    0.8455 C   0  0  0  0  0  0  0  0  0 23  0  0
   -2.0560   -5.9981    0.6671 H   0  0  0  0  0  0  0  0  0 29  0  0
   -2.3742   -4.0755    1.5693 C   0  0  0  0  0  0  0  0  0 24  0  0
   -3.3526   -4.3368    1.9494 H   0  0  0  0  0  0  0  0  0 28  0  0
   -1.8667   -2.8194    1.8025 C   0  0  0  0  0  0  0  0  0 25  0  0
   -2.4382   -2.1043    2.3665 H   0  0  0  0  0  0  0  0  0 27  0  0
   -0.5990   -2.4586    1.3136 C   0  0  0  0  0  0  0  0  0 26  0  0
   -1.6440    2.1264    2.3642 C   0  0  0  0  0  0  0  0  0 36  0  0
   -0.8410    3.4006    2.6969 C   0  0  0  0  0  0  0  0  0 37  0  0
   -0.5489    3.9204    1.7885 H   0  0  0  0  0  0  0  0  0 38  0  0
   -1.4749    4.0581    3.2888 H   0  0  0  0  0  0  0  0  0 39  0  0
    0.0530    3.1366    3.2520 H   0  0  0  0  0  0  0  0  0 40  0  0
   -2.4896    2.3875    1.7188 H   0  0  0  0  0  0  0  0  0 41  0  0
   -2.0019    1.6825    3.2825 H   0  0  0  0  0  0  0  0  0 42  0  0
   -1.0189    0.5751   -0.6782 C   0  0  0  0  0  0  0  0  0  9  0  0
   -1.7408   -0.1965   -0.4289 H   0  0  0  0  0  0  0  0  0 12  0  0
   -0.6548    0.7873   -1.9913 C   0  0  0  0  0  0  0  0  0 10  0  0
   -1.0997    0.1811   -2.7722 H   0  0  0  0  0  0  0  0  0 11  0  0
   -0.0616    1.4360   -4.4064 H   0  0  0  0  0  0  0  0  0 45  0  0
    1.6415    1.5392   -3.9387 H   0  0  0  0  0  0  0  0  0 46  0  0
  1  2  1  0
  1  3  1  0
  1  4  1  0
  1  5  1  0
  5  6  1  0
  6  7  4  0
  7  8  1  0
  7  9  4  0
  9 10  1  0
  9 11  4  0
 11 12  1  0
 12 13  1  0
 13 14  2  0
 13 15  1  0
 15 16  4  0
 16 17  1  0
 16 18  4  0
 18 19  1  0
 19 20  1  0
 19 21  1  0
 19 22  1  0
 18 23  4  0
 23 24  2  0
 23 25  4  0
 25 26  4  0
 26 27  1  0
 26 28  4  0
 28 29  1  0
 28 30  4  0
 30 31  1  0
 30 32  4  0
 32 33  1  0
 32 34  4  0
 12 35  1  0
 35 36  1  0
 36 37  1  0
 36 38  1  0
 36 39  1  0
 35 40  1  0
 35 41  1  0
 11 42  4  0
 42 43  1  0
 42 44  4  0
 44 45  1  0
  5 46  1  0
  5 47  1  0
 44  6  4  0
 34 15  4  0
 34 25  4  0
M  END
>  <sample_id>  (508)
train::CCc1ccc(N(CC)C(=O)c2cn(C)c(=O)c3ccccc23)cc1__gen0000

>  <partition>  (508)
BAT_EXTERNAL_CONFIRM

>  <method>  (508)
BA_seed193

>  <candidate>  (508)
primary

$$$$
train::CCc1ccc(N(CC)C(=O)c2cn(C)c(=O)c3ccccc23)cc1__gen0001
     RDKit          3D

 47 49  0  0  0  0  0  0  0  0999 V2000
    2.3304   -4.0004   -2.2314 C   0  0  0  0  0  0  0  0  0  0  0  0
    2.4816   -4.2218   -1.1858 H   0  0  0  0  0  0  0  0  0  1  0  0
    2.1730   -4.9347   -2.7529 H   0  0  0  0  0  0  0  0  0  2  0  0
    3.2148   -3.5254   -2.6439 H   0  0  0  0  0  0  0  0  0  3  0  0
    1.0971   -3.1107   -2.4171 C   0  0  0  0  0  0  0  0  0  4  0  0
    1.1579   -1.7610   -1.7631 C   0  0  0  0  0  0  0  0  0  5  0  0
    0.0820   -0.8967   -1.9320 C   0  0  0  0  0  0  0  0  0  6  0  0
   -0.7591   -1.2101   -2.5255 H   0  0  0  0  0  0  0  0  0 44  0  0
    0.0490    0.3449   -1.3376 C   0  0  0  0  0  0  0  0  0  7  0  0
   -0.7733    1.0220   -1.5066 H   0  0  0  0  0  0  0  0  0 43  0  0
    1.1234    0.7748   -0.5696 C   0  0  0  0  0  0  0  0  0  8  0  0
    1.1028    2.0433    0.0675 N   0  0  0  0  0  0  0  0  0 13  0  0
    0.0536    2.4693    0.8317 C   0  0  0  0  0  0  0  0  0 14  0  0
   -0.0131    3.5922    1.2807 O   0  0  0  0  0  0  0  0  0 15  0  0
   -1.0201    1.4549    1.0769 C   0  0  0  0  0  0  0  0  0 16  0  0
   -2.3026    1.7855    0.7793 C   0  0  0  0  0  0  0  0  0 17  0  0
   -2.5345    2.7587    0.3886 H   0  0  0  0  0  0  0  0  0 35  0  0
   -3.3497    0.9437    0.9153 N   0  0  0  0  0  0  0  0  0 18  0  0
   -4.6644    1.3631    0.5356 C   0  0  0  0  0  0  0  0  0 31  0  0
   -4.9584    2.2360    1.1335 H   0  0  0  0  0  0  0  0  0 32  0  0
   -5.3513    0.5427    0.7243 H   0  0  0  0  0  0  0  0  0 33  0  0
   -4.6941    1.6369   -0.5305 H   0  0  0  0  0  0  0  0  0 34  0  0
   -3.1813   -0.3756    1.3737 C   0  0  0  0  0  0  0  0  0 19  0  0
   -4.1457   -1.1320    1.4240 O   0  0  0  0  0  0  0  0  0 20  0  0
   -1.8383   -0.7314    1.7946 C   0  0  0  0  0  0  0  0  0 21  0  0
   -1.6278   -2.0024    2.3228 C   0  0  0  0  0  0  0  0  0 22  0  0
   -2.4679   -2.6774    2.3921 H   0  0  0  0  0  0  0  0  0 30  0  0
   -0.3798   -2.3559    2.7949 C   0  0  0  0  0  0  0  0  0 23  0  0
   -0.2144   -3.3395    3.2086 H   0  0  0  0  0  0  0  0  0 29  0  0
    0.6756   -1.4409    2.7368 C   0  0  0  0  0  0  0  0  0 24  0  0
    1.6439   -1.7141    3.1384 H   0  0  0  0  0  0  0  0  0 28  0  0
    0.4788   -0.1889    2.2072 C   0  0  0  0  0  0  0  0  0 25  0  0
    1.2877    0.5229    2.2076 H   0  0  0  0  0  0  0  0  0 27  0  0
   -0.7687    0.1851    1.6884 C   0  0  0  0  0  0  0  0  0 26  0  0
    2.1715    2.9864   -0.2028 C   0  0  0  0  0  0  0  0  0 36  0  0
    1.7543    3.9709   -1.2850 C   0  0  0  0  0  0  0  0  0 37  0  0
    0.9019    4.5638   -0.9380 H   0  0  0  0  0  0  0  0  0 38  0  0
    2.5657    4.6661   -1.5174 H   0  0  0  0  0  0  0  0  0 39  0  0
    1.4547    3.4535   -2.2000 H   0  0  0  0  0  0  0  0  0 40  0  0
    3.0492    2.4217   -0.5354 H   0  0  0  0  0  0  0  0  0 41  0  0
    2.3990    3.5292    0.7092 H   0  0  0  0  0  0  0  0  0 42  0  0
    2.2289   -0.0619   -0.4196 C   0  0  0  0  0  0  0  0  0  9  0  0
    3.0720    0.2623    0.1690 H   0  0  0  0  0  0  0  0  0 12  0  0
    2.2421   -1.3107   -1.0134 C   0  0  0  0  0  0  0  0  0 10  0  0
    3.1035   -1.9403   -0.8723 H   0  0  0  0  0  0  0  0  0 11  0  0
    0.2189   -3.6343   -2.0263 H   0  0  0  0  0  0  0  0  0 45  0  0
    0.9314   -2.9636   -3.4946 H   0  0  0  0  0  0  0  0  0 46  0  0
  1  2  1  0
  1  3  1  0
  1  4  1  0
  1  5  1  0
  5  6  1  0
  6  7  4  0
  7  8  1  0
  7  9  4  0
  9 10  1  0
  9 11  4  0
 11 12  1  0
 12 13  1  0
 13 14  2  0
 13 15  1  0
 15 16  4  0
 16 17  1  0
 16 18  4  0
 18 19  1  0
 19 20  1  0
 19 21  1  0
 19 22  1  0
 18 23  4  0
 23 24  2  0
 23 25  4  0
 25 26  4  0
 26 27  1  0
 26 28  4  0
 28 29  1  0
 28 30  4  0
 30 31  1  0
 30 32  4  0
 32 33  1  0
 32 34  4  0
 12 35  1  0
 35 36  1  0
 36 37  1  0
 36 38  1  0
 36 39  1  0
 35 40  1  0
 35 41  1  0
 11 42  4  0
 42 43  1  0
 42 44  4  0
 44 45  1  0
  5 46  1  0
  5 47  1  0
 44  6  4  0
 34 15  4  0
 34 25  4  0
M  END
>  <sample_id>  (509)
train::CCc1ccc(N(CC)C(=O)c2cn(C)c(=O)c3ccccc23)cc1__gen0001

>  <partition>  (509)
BAT_EXTERNAL_CONFIRM

>  <method>  (509)
BA_seed193

>  <candidate>  (509)
primary

$$$$
train::CCc1ccc(N(CC)C(=O)c2cn(C)c(=O)c3ccccc23)cc1__gen0002
     RDKit          3D

 47 49  0  0  0  0  0  0  0  0999 V2000
   -4.7157    1.0175    0.6316 C   0  0  0  0  0  0  0  0  0  0  0  0
   -5.7048    1.0738    0.1634 H   0  0  0  0  0  0  0  0  0  1  0  0
   -4.1663    1.9063    0.3656 H   0  0  0  0  0  0  0  0  0  2  0  0
   -4.8776    0.9902    1.7128 H   0  0  0  0  0  0  0  0  0  3  0  0
   -3.9860   -0.2393    0.1587 C   0  0  0  0  0  0  0  0  0  4  0  0
   -2.5761   -0.3529    0.6199 C   0  0  0  0  0  0  0  0  0  5  0  0
   -1.7155   -1.2275   -0.0546 C   0  0  0  0  0  0  0  0  0  6  0  0
   -2.0924   -1.8056   -0.8817 H   0  0  0  0  0  0  0  0  0 44  0  0
   -0.3950   -1.3653    0.3160 C   0  0  0  0  0  0  0  0  0  7  0  0
    0.2464   -2.0548   -0.2079 H   0  0  0  0  0  0  0  0  0 43  0  0
    0.1329   -0.6104    1.3540 C   0  0  0  0  0  0  0  0  0  8  0  0
    1.4847   -0.6935    1.7234 N   0  0  0  0  0  0  0  0  0 13  0  0
    2.4931   -0.6480    0.7789 C   0  0  0  0  0  0  0  0  0 14  0  0
    3.6426   -0.9493    1.0347 O   0  0  0  0  0  0  0  0  0 15  0  0
    2.0754   -0.1761   -0.5777 C   0  0  0  0  0  0  0  0  0 16  0  0
    2.4354   -0.9145   -1.6580 C   0  0  0  0  0  0  0  0  0 17  0  0
    3.0474   -1.7995   -1.5462 H   0  0  0  0  0  0  0  0  0 35  0  0
    2.0380   -0.6243   -2.9266 N   0  0  0  0  0  0  0  0  0 18  0  0
    2.4695   -1.4570   -4.0295 C   0  0  0  0  0  0  0  0  0 31  0  0
    3.2455   -0.9249   -4.5950 H   0  0  0  0  0  0  0  0  0 32  0  0
    2.8679   -2.4036   -3.6519 H   0  0  0  0  0  0  0  0  0 33  0  0
    1.6200   -1.6332   -4.6945 H   0  0  0  0  0  0  0  0  0 34  0  0
    1.1968    0.4386   -3.2213 C   0  0  0  0  0  0  0  0  0 19  0  0
    0.8072    0.6215   -4.3592 O   0  0  0  0  0  0  0  0  0 20  0  0
    0.8800    1.3085   -2.0984 C   0  0  0  0  0  0  0  0  0 21  0  0
    0.0912    2.4323   -2.3359 C   0  0  0  0  0  0  0  0  0 22  0  0
   -0.2679    2.6029   -3.3370 H   0  0  0  0  0  0  0  0  0 30  0  0
   -0.1762    3.3253   -1.3147 C   0  0  0  0  0  0  0  0  0 23  0  0
   -0.7803    4.1995   -1.5007 H   0  0  0  0  0  0  0  0  0 29  0  0
    0.3496    3.0968   -0.0395 C   0  0  0  0  0  0  0  0  0 24  0  0
    0.1626    3.8090    0.7397 H   0  0  0  0  0  0  0  0  0 28  0  0
    1.0942    1.9772    0.2260 C   0  0  0  0  0  0  0  0  0 25  0  0
    1.5228    1.8265    1.2013 H   0  0  0  0  0  0  0  0  0 27  0  0
    1.3435    1.0323   -0.7918 C   0  0  0  0  0  0  0  0  0 26  0  0
    1.8388   -1.0551    3.0811 C   0  0  0  0  0  0  0  0  0 36  0  0
    1.1627   -2.3573    3.5211 C   0  0  0  0  0  0  0  0  0 37  0  0
    1.4736   -2.5970    4.5298 H   0  0  0  0  0  0  0  0  0 38  0  0
    0.0940   -2.2599    3.4764 H   0  0  0  0  0  0  0  0  0 39  0  0
    1.4822   -3.1691    2.8570 H   0  0  0  0  0  0  0  0  0 40  0  0
    2.9235   -1.1601    3.1007 H   0  0  0  0  0  0  0  0  0 41  0  0
    1.5571   -0.2314    3.7392 H   0  0  0  0  0  0  0  0  0 42  0  0
   -0.7257    0.2434    2.0623 C   0  0  0  0  0  0  0  0  0  9  0  0
   -0.3271    0.8060    2.8881 H   0  0  0  0  0  0  0  0  0 12  0  0
   -2.0547    0.3553    1.7006 C   0  0  0  0  0  0  0  0  0 10  0  0
   -2.6766    1.0337    2.2518 H   0  0  0  0  0  0  0  0  0 11  0  0
   -3.9976   -0.2736   -0.9307 H   0  0  0  0  0  0  0  0  0 45  0  0
   -4.5432   -1.1136    0.5186 H   0  0  0  0  0  0  0  0  0 46  0  0
  1  2  1  0
  1  3  1  0
  1  4  1  0
  1  5  1  0
  5  6  1  0
  6  7  4  0
  7  8  1  0
  7  9  4  0
  9 10  1  0
  9 11  4  0
 11 12  1  0
 12 13  1  0
 13 14  2  0
 13 15  1  0
 15 16  4  0
 16 17  1  0
 16 18  4  0
 18 19  1  0
 19 20  1  0
 19 21  1  0
 19 22  1  0
 18 23  4  0
 23 24  2  0
 23 25  4  0
 25 26  4  0
 26 27  1  0
 26 28  4  0
 28 29  1  0
 28 30  4  0
 30 31  1  0
 30 32  4  0
 32 33  1  0
 32 34  4  0
 12 35  1  0
 35 36  1  0
 36 37  1  0
 36 38  1  0
 36 39  1  0
 35 40  1  0
 35 41  1  0
 11 42  4  0
 42 43  1  0
 42 44  4  0
 44 45  1  0
  5 46  1  0
  5 47  1  0
 44  6  4  0
 34 15  4  0
 34 25  4  0
M  END
>  <sample_id>  (510)
train::CCc1ccc(N(CC)C(=O)c2cn(C)c(=O)c3ccccc23)cc1__gen0002

>  <partition>  (510)
BAT_EXTERNAL_CONFIRM

>  <method>  (510)
BA_seed193

>  <candidate>  (510)
primary

$$$$
train::Cc1cccc(NC(=O)c2ccc(OCC3CCCO3)cc2)c1C__gen0000
     RDKit          3D

 47 49  0  0  0  0  0  0  0  0999 V2000
    6.1763   -3.4424   -1.2165 C   0  0  0  0  0  0  0  0  0  0  0  0
    5.0369   -3.4555   -0.2414 C   0  0  0  0  0  0  0  0  0  1  0  0
    5.1615   -4.2087    0.9150 C   0  0  0  0  0  0  0  0  0  2  0  0
    6.0594   -4.7811    1.0921 H   0  0  0  0  0  0  0  0  0 43  0  0
    4.1367   -4.2560    1.8494 C   0  0  0  0  0  0  0  0  0  3  0  0
    4.2441   -4.8535    2.7403 H   0  0  0  0  0  0  0  0  0 42  0  0
    2.9802   -3.5386    1.6398 C   0  0  0  0  0  0  0  0  0  4  0  0
    2.1758   -3.5722    2.3584 H   0  0  0  0  0  0  0  0  0 41  0  0
    2.8431   -2.7740    0.4885 C   0  0  0  0  0  0  0  0  0  5  0  0
    1.6851   -2.0166    0.2679 N   0  0  0  0  0  0  0  0  0 11  0  0
    0.4404   -2.1372    0.8328 C   0  0  0  0  0  0  0  0  0 12  0  0
    0.1601   -2.9826    1.6727 O   0  0  0  0  0  0  0  0  0 13  0  0
   -0.5419   -1.1457    0.3606 C   0  0  0  0  0  0  0  0  0 14  0  0
   -0.2087    0.1732    0.0447 C   0  0  0  0  0  0  0  0  0 15  0  0
    0.7988    0.5208    0.1558 H   0  0  0  0  0  0  0  0  0 39  0  0
   -1.1780    1.0720   -0.3651 C   0  0  0  0  0  0  0  0  0 16  0  0
   -0.8926    2.0838   -0.5973 H   0  0  0  0  0  0  0  0  0 38  0  0
   -2.5103    0.6687   -0.4930 C   0  0  0  0  0  0  0  0  0 17  0  0
   -3.5334    1.4482   -0.9257 O   0  0  0  0  0  0  0  0  0 22  0  0
   -3.3295    2.8306   -1.1304 C   0  0  0  0  0  0  0  0  0 23  0  0
   -3.2717    3.5998    0.2051 C   0  0  1  0  0  0  0  0  0 24  0  0
   -2.4767    3.1776    0.8351 H   0  0  0  0  0  0  0  0  0 25  0  0
   -2.9446    4.9602   -0.0668 O   0  0  0  0  0  0  0  0  0 26  0  0
   -4.0116    5.7970    0.3410 C   0  0  0  0  0  0  0  0  0 27  0  0
   -3.7744    6.2425    1.3248 H   0  0  0  0  0  0  0  0  0 34  0  0
   -4.1067    6.6041   -0.4010 H   0  0  0  0  0  0  0  0  0 35  0  0
   -5.2524    4.9119    0.4471 C   0  0  0  0  0  0  0  0  0 28  0  0
   -5.7205    4.7959   -0.5287 H   0  0  0  0  0  0  0  0  0 29  0  0
   -5.9889    5.3063    1.1425 H   0  0  0  0  0  0  0  0  0 30  0  0
   -4.6332    3.5889    0.9198 C   0  0  0  0  0  0  0  0  0 31  0  0
   -4.4879    3.6094    1.9971 H   0  0  0  0  0  0  0  0  0 32  0  0
   -5.2143    2.7155    0.6477 H   0  0  0  0  0  0  0  0  0 33  0  0
   -2.4227    3.0161   -1.7059 H   0  0  0  0  0  0  0  0  0 36  0  0
   -4.2027    3.1598   -1.7095 H   0  0  0  0  0  0  0  0  0 37  0  0
   -2.8413   -0.6480   -0.1739 C   0  0  0  0  0  0  0  0  0 18  0  0
   -3.8725   -0.9568   -0.2698 H   0  0  0  0  0  0  0  0  0 21  0  0
   -1.8757   -1.5362    0.2443 C   0  0  0  0  0  0  0  0  0 19  0  0
   -2.1413   -2.5526    0.5139 H   0  0  0  0  0  0  0  0  0 20  0  0
    1.7412   -1.3466   -0.4887 H   0  0  0  0  0  0  0  0  0 40  0  0
    3.8646   -2.7235   -0.4656 C   0  0  0  0  0  0  0  0  0  6  0  0
    3.6704   -1.9127   -1.7143 C   0  0  0  0  0  0  0  0  0  7  0  0
    4.4761   -2.0950   -2.4295 H   0  0  0  0  0  0  0  0  0  8  0  0
    2.7363   -2.1699   -2.2252 H   0  0  0  0  0  0  0  0  0  9  0  0
    3.6566   -0.8483   -1.4878 H   0  0  0  0  0  0  0  0  0 10  0  0
    5.8675   -3.8544   -2.1813 H   0  0  0  0  0  0  0  0  0 44  0  0
    6.9956   -4.0502   -0.8337 H   0  0  0  0  0  0  0  0  0 45  0  0
    6.5267   -2.4240   -1.3852 H   0  0  0  0  0  0  0  0  0 46  0  0
  1  2  1  0
  2  3  4  0
  3  4  1  0
  3  5  4  0
  5  6  1  0
  5  7  4  0
  7  8  1  0
  7  9  4  0
  9 10  1  0
 10 11  1  0
 11 12  2  0
 11 13  1  0
 13 14  4  0
 14 15  1  0
 14 16  4  0
 16 17  1  0
 16 18  4  0
 18 19  1  0
 19 20  1  0
 20 21  1  0
 21 22  1  1
 21 23  1  0
 23 24  1  0
 24 25  1  0
 24 26  1  0
 24 27  1  0
 27 28  1  0
 27 29  1  0
 27 30  1  0
 30 31  1  0
 30 32  1  0
 20 33  1  0
 20 34  1  0
 18 35  4  0
 35 36  1  0
 35 37  4  0
 37 38  1  0
 10 39  1  0
  9 40  4  0
 40 41  1  0
 41 42  1  0
 41 43  1  0
 41 44  1  0
  1 45  1  0
  1 46  1  0
  1 47  1  0
 40  2  4  0
 37 13  4  0
 30 21  1  0
M  END
>  <sample_id>  (511)
train::Cc1cccc(NC(=O)c2ccc(OCC3CCCO3)cc2)c1C__gen0000

>  <partition>  (511)
BAT_EXTERNAL_CONFIRM

>  <method>  (511)
BA_seed193

>  <candidate>  (511)
primary

$$$$
train::Cc1cccc(NC(=O)c2ccc(OCC3CCCO3)cc2)c1C__gen0001
     RDKit          3D

 47 49  0  0  0  0  0  0  0  0999 V2000
    2.5158    1.5437   -4.3314 C   0  0  0  0  0  0  0  0  0  0  0  0
    1.3425    1.5501   -3.4206 C   0  0  0  0  0  0  0  0  0  1  0  0
    0.4414    0.4921   -3.4539 C   0  0  0  0  0  0  0  0  0  2  0  0
    0.6203   -0.3225   -4.1276 H   0  0  0  0  0  0  0  0  0 43  0  0
   -0.6853    0.4781   -2.6517 C   0  0  0  0  0  0  0  0  0  3  0  0
   -1.3831   -0.3425   -2.6904 H   0  0  0  0  0  0  0  0  0 42  0  0
   -0.9375    1.5399   -1.8016 C   0  0  0  0  0  0  0  0  0  4  0  0
   -1.8148    1.5641   -1.1776 H   0  0  0  0  0  0  0  0  0 41  0  0
   -0.0373    2.6042   -1.7241 C   0  0  0  0  0  0  0  0  0  5  0  0
   -0.2884    3.6801   -0.8871 N   0  0  0  0  0  0  0  0  0 11  0  0
   -0.8244    3.6936    0.3733 C   0  0  0  0  0  0  0  0  0 12  0  0
   -1.2028    4.7257    0.8870 O   0  0  0  0  0  0  0  0  0 13  0  0
   -0.8719    2.3804    1.0725 C   0  0  0  0  0  0  0  0  0 14  0  0
   -1.9775    2.0504    1.8369 C   0  0  0  0  0  0  0  0  0 15  0  0
   -2.8068    2.7396    1.8882 H   0  0  0  0  0  0  0  0  0 39  0  0
   -2.0222    0.8575    2.5238 C   0  0  0  0  0  0  0  0  0 16  0  0
   -2.8938    0.5719    3.1026 H   0  0  0  0  0  0  0  0  0 38  0  0
   -0.9500   -0.0302    2.4800 C   0  0  0  0  0  0  0  0  0 17  0  0
   -1.1064   -1.1647    3.2064 O   0  0  0  0  0  0  0  0  0 22  0  0
   -0.1100   -2.1782    3.1539 C   0  0  0  0  0  0  0  0  0 23  0  0
   -0.1476   -2.9688    1.8436 C   0  0  1  0  0  0  0  0  0 24  0  0
   -0.0299   -2.2745    0.9988 H   0  0  0  0  0  0  0  0  0 25  0  0
    0.9215   -3.9068    1.7934 O   0  0  0  0  0  0  0  0  0 26  0  0
    0.4059   -5.1790    2.1182 C   0  0  0  0  0  0  0  0  0 27  0  0
    0.3395   -5.3024    3.1945 H   0  0  0  0  0  0  0  0  0 34  0  0
    1.1001   -5.9168    1.7094 H   0  0  0  0  0  0  0  0  0 35  0  0
   -0.9834   -5.2029    1.4784 C   0  0  0  0  0  0  0  0  0 28  0  0
   -1.6280   -5.9550    1.9338 H   0  0  0  0  0  0  0  0  0 29  0  0
   -0.8961   -5.4238    0.4183 H   0  0  0  0  0  0  0  0  0 30  0  0
   -1.4599   -3.7699    1.7014 C   0  0  0  0  0  0  0  0  0 31  0  0
   -2.0366   -3.6878    2.6241 H   0  0  0  0  0  0  0  0  0 32  0  0
   -2.0782   -3.4198    0.8760 H   0  0  0  0  0  0  0  0  0 33  0  0
    0.8929   -1.7618    3.2958 H   0  0  0  0  0  0  0  0  0 36  0  0
   -0.3362   -2.8533    3.9907 H   0  0  0  0  0  0  0  0  0 37  0  0
    0.1963    0.3261    1.7553 C   0  0  0  0  0  0  0  0  0 18  0  0
    1.0535   -0.3290    1.7268 H   0  0  0  0  0  0  0  0  0 21  0  0
    0.2230    1.5198    1.0625 C   0  0  0  0  0  0  0  0  0 19  0  0
    1.1071    1.7730    0.5009 H   0  0  0  0  0  0  0  0  0 20  0  0
   -0.1263    4.6055   -1.2733 H   0  0  0  0  0  0  0  0  0 40  0  0
    1.1065    2.6212   -2.5413 C   0  0  0  0  0  0  0  0  0  6  0  0
    2.0456    3.7937   -2.4607 C   0  0  0  0  0  0  0  0  0  7  0  0
    1.6489    4.6388   -3.0154 H   0  0  0  0  0  0  0  0  0  8  0  0
    2.1789    4.0932   -1.4135 H   0  0  0  0  0  0  0  0  0  9  0  0
    3.0266    3.5381   -2.8578 H   0  0  0  0  0  0  0  0  0 10  0  0
    2.5586    2.4583   -4.9369 H   0  0  0  0  0  0  0  0  0 44  0  0
    2.4606    0.6854   -5.0092 H   0  0  0  0  0  0  0  0  0 45  0  0
    3.4487    1.4652   -3.7726 H   0  0  0  0  0  0  0  0  0 46  0  0
  1  2  1  0
  2  3  4  0
  3  4  1  0
  3  5  4  0
  5  6  1  0
  5  7  4  0
  7  8  1  0
  7  9  4  0
  9 10  1  0
 10 11  1  0
 11 12  2  0
 11 13  1  0
 13 14  4  0
 14 15  1  0
 14 16  4  0
 16 17  1  0
 16 18  4  0
 18 19  1  0
 19 20  1  0
 20 21  1  0
 21 22  1  6
 21 23  1  0
 23 24  1  0
 24 25  1  0
 24 26  1  0
 24 27  1  0
 27 28  1  0
 27 29  1  0
 27 30  1  0
 30 31  1  0
 30 32  1  0
 20 33  1  0
 20 34  1  0
 18 35  4  0
 35 36  1  0
 35 37  4  0
 37 38  1  0
 10 39  1  0
  9 40  4  0
 40 41  1  0
 41 42  1  0
 41 43  1  0
 41 44  1  0
  1 45  1  0
  1 46  1  0
  1 47  1  0
 40  2  4  0
 37 13  4  0
 30 21  1  0
M  END
>  <sample_id>  (512)
train::Cc1cccc(NC(=O)c2ccc(OCC3CCCO3)cc2)c1C__gen0001

>  <partition>  (512)
BAT_EXTERNAL_CONFIRM

>  <method>  (512)
BA_seed193

>  <candidate>  (512)
primary

$$$$
train::Cc1cccc(NC(=O)c2ccc(OCC3CCCO3)cc2)c1C__gen0002
     RDKit          3D

 47 49  0  0  0  0  0  0  0  0999 V2000
    1.9859    0.0422   -6.8161 C   0  0  0  0  0  0  0  0  0  0  0  0
    1.7733   -0.7979   -5.5843 C   0  0  0  0  0  0  0  0  0  1  0  0
    2.0710   -2.1504   -5.6543 C   0  0  0  0  0  0  0  0  0  2  0  0
    2.4515   -2.5622   -6.5824 H   0  0  0  0  0  0  0  0  0 43  0  0
    1.8787   -2.9730   -4.5490 C   0  0  0  0  0  0  0  0  0  3  0  0
    2.1152   -4.0177   -4.6086 H   0  0  0  0  0  0  0  0  0 42  0  0
    1.4009   -2.4395   -3.3737 C   0  0  0  0  0  0  0  0  0  4  0  0
    1.2479   -3.0692   -2.5080 H   0  0  0  0  0  0  0  0  0 41  0  0
    1.0938   -1.0856   -3.2898 C   0  0  0  0  0  0  0  0  0  5  0  0
    0.6109   -0.5216   -2.0962 N   0  0  0  0  0  0  0  0  0 11  0  0
    0.1498   -1.1241   -0.9738 C   0  0  0  0  0  0  0  0  0 12  0  0
    0.0402   -2.3348   -0.8487 O   0  0  0  0  0  0  0  0  0 13  0  0
   -0.2526   -0.1831    0.0909 C   0  0  0  0  0  0  0  0  0 14  0  0
    0.3547    1.0487    0.3108 C   0  0  0  0  0  0  0  0  0 15  0  0
    1.1761    1.3772   -0.3098 H   0  0  0  0  0  0  0  0  0 39  0  0
   -0.0640    1.8654    1.3334 C   0  0  0  0  0  0  0  0  0 16  0  0
    0.4066    2.8126    1.5049 H   0  0  0  0  0  0  0  0  0 38  0  0
   -1.0950    1.4784    2.1865 C   0  0  0  0  0  0  0  0  0 17  0  0
   -1.4122    2.3771    3.1391 O   0  0  0  0  0  0  0  0  0 22  0  0
   -2.3774    2.0908    4.1312 C   0  0  0  0  0  0  0  0  0 23  0  0
   -1.8659    1.2770    5.3420 C   0  0  1  0  0  0  0  0  0 24  0  0
   -2.1370    1.8366    6.2553 H   0  0  0  0  0  0  0  0  0 25  0  0
   -2.5513    0.0286    5.3665 O   0  0  0  0  0  0  0  0  0 26  0  0
   -1.6244   -1.0197    5.5339 C   0  0  0  0  0  0  0  0  0 27  0  0
   -1.9947   -1.8992    4.9935 H   0  0  0  0  0  0  0  0  0 34  0  0
   -1.5425   -1.2701    6.6004 H   0  0  0  0  0  0  0  0  0 35  0  0
   -0.2838   -0.5121    4.9986 C   0  0  0  0  0  0  0  0  0 28  0  0
    0.5592   -1.0214    5.4753 H   0  0  0  0  0  0  0  0  0 29  0  0
   -0.2090   -0.6487    3.9238 H   0  0  0  0  0  0  0  0  0 30  0  0
   -0.3552    0.9746    5.3551 C   0  0  0  0  0  0  0  0  0 31  0  0
    0.0462    1.1338    6.3567 H   0  0  0  0  0  0  0  0  0 32  0  0
    0.1786    1.6066    4.6601 H   0  0  0  0  0  0  0  0  0 33  0  0
   -2.6950    3.0727    4.4938 H   0  0  0  0  0  0  0  0  0 36  0  0
   -3.2462    1.5996    3.7122 H   0  0  0  0  0  0  0  0  0 37  0  0
   -1.6956    0.2381    1.9936 C   0  0  0  0  0  0  0  0  0 18  0  0
   -2.4802   -0.1076    2.6507 H   0  0  0  0  0  0  0  0  0 21  0  0
   -1.2650   -0.5849    0.9701 C   0  0  0  0  0  0  0  0  0 19  0  0
   -1.7273   -1.5445    0.8169 H   0  0  0  0  0  0  0  0  0 20  0  0
    0.5510    0.4912   -2.1163 H   0  0  0  0  0  0  0  0  0 40  0  0
    1.2734   -0.2456   -4.4044 C   0  0  0  0  0  0  0  0  0  6  0  0
    0.9182    1.2129   -4.2955 C   0  0  0  0  0  0  0  0  0  7  0  0
   -0.1255    1.3438   -4.0113 H   0  0  0  0  0  0  0  0  0  8  0  0
    1.5414    1.7109   -3.5624 H   0  0  0  0  0  0  0  0  0  9  0  0
    1.0630    1.7096   -5.2422 H   0  0  0  0  0  0  0  0  0 10  0  0
    1.0435    0.4839   -7.1439 H   0  0  0  0  0  0  0  0  0 44  0  0
    2.3905   -0.5517   -7.6190 H   0  0  0  0  0  0  0  0  0 45  0  0
    2.6784    0.8523   -6.6061 H   0  0  0  0  0  0  0  0  0 46  0  0
  1  2  1  0
  2  3  4  0
  3  4  1  0
  3  5  4  0
  5  6  1  0
  5  7  4  0
  7  8  1  0
  7  9  4  0
  9 10  1  0
 10 11  1  0
 11 12  2  0
 11 13  1  0
 13 14  4  0
 14 15  1  0
 14 16  4  0
 16 17  1  0
 16 18  4  0
 18 19  1  0
 19 20  1  0
 20 21  1  0
 21 22  1  1
 21 23  1  0
 23 24  1  0
 24 25  1  0
 24 26  1  0
 24 27  1  0
 27 28  1  0
 27 29  1  0
 27 30  1  0
 30 31  1  0
 30 32  1  0
 20 33  1  0
 20 34  1  0
 18 35  4  0
 35 36  1  0
 35 37  4  0
 37 38  1  0
 10 39  1  0
  9 40  4  0
 40 41  1  0
 41 42  1  0
 41 43  1  0
 41 44  1  0
  1 45  1  0
  1 46  1  0
  1 47  1  0
 40  2  4  0
 37 13  4  0
 30 21  1  0
M  END
>  <sample_id>  (513)
train::Cc1cccc(NC(=O)c2ccc(OCC3CCCO3)cc2)c1C__gen0002

>  <partition>  (513)
BAT_EXTERNAL_CONFIRM

>  <method>  (513)
BA_seed193

>  <candidate>  (513)
primary

$$$$
train::CCOC(=O)C1(CCc2ccccc2)CCN(Cc2csc(C(C)=O)c2)CC1__gen0000
     RDKit          3D

 57 59  0  0  0  0  0  0  0  0999 V2000
    0.2658   -1.1688    3.0520 C   0  0  0  0  0  0  0  0  0  0  0  0
   -0.6742   -0.6930    1.9557 C   0  0  0  0  0  0  0  0  0  1  0  0
   -1.6886   -0.4924    2.3727 H   0  0  0  0  0  0  0  0  0  2  0  0
   -0.7406   -1.4700    1.1812 H   0  0  0  0  0  0  0  0  0  3  0  0
   -0.2518    0.5276    1.3456 O   0  0  0  0  0  0  0  0  0  4  0  0
    0.6577    0.4521    0.4045 C   0  0  0  0  0  0  0  0  0  5  0  0
    1.2339   -0.5625    0.1009 O   0  0  0  0  0  0  0  0  0  6  0  0
    0.8819    1.7836   -0.3252 C   0  0  1  0  0  0  0  0  0  7  0  0
    2.0878    2.5836    0.2104 C   0  0  0  0  0  0  0  0  0 37  0  0
    2.1956    3.4522   -0.4426 H   0  0  0  0  0  0  0  0  0 38  0  0
    1.8315    2.9543    1.2056 H   0  0  0  0  0  0  0  0  0 39  0  0
    3.4539    1.8734    0.2907 C   0  0  0  0  0  0  0  0  0 40  0  0
    3.5119    0.7744    1.3058 C   0  0  0  0  0  0  0  0  0 41  0  0
    3.7471   -0.5285    0.9177 C   0  0  0  0  0  0  0  0  0 42  0  0
    3.8772   -0.7722   -0.1232 H   0  0  0  0  0  0  0  0  0 51  0  0
    3.7515   -1.5476    1.8457 C   0  0  0  0  0  0  0  0  0 43  0  0
    3.9192   -2.5623    1.5410 H   0  0  0  0  0  0  0  0  0 50  0  0
    3.5847   -1.2622    3.1875 C   0  0  0  0  0  0  0  0  0 44  0  0
    3.5868   -2.0523    3.9215 H   0  0  0  0  0  0  0  0  0 49  0  0
    3.3964    0.0537    3.5943 C   0  0  0  0  0  0  0  0  0 45  0  0
    3.2556    0.2794    4.6331 H   0  0  0  0  0  0  0  0  0 48  0  0
    3.3519    1.0606    2.6543 C   0  0  0  0  0  0  0  0  0 46  0  0
    3.2145    2.0866    2.9664 H   0  0  0  0  0  0  0  0  0 47  0  0
    3.6978    1.4749   -0.7005 H   0  0  0  0  0  0  0  0  0 52  0  0
    4.2078    2.6213    0.5333 H   0  0  0  0  0  0  0  0  0 53  0  0
    1.0510    1.3987   -1.8002 C   0  0  0  0  0  0  0  0  0  8  0  0
    1.3113    2.3092   -2.3530 H   0  0  0  0  0  0  0  0  0 35  0  0
    1.8465    0.6685   -1.9026 H   0  0  0  0  0  0  0  0  0 36  0  0
   -0.2522    0.8242   -2.3377 C   0  0  0  0  0  0  0  0  0  9  0  0
   -0.1524    0.6100   -3.4035 H   0  0  0  0  0  0  0  0  0 33  0  0
   -0.4620   -0.1439   -1.8370 H   0  0  0  0  0  0  0  0  0 34  0  0
   -1.3507    1.7694   -2.1775 N   0  0  0  0  0  0  0  0  0 10  0  0
   -2.5765    1.3044   -2.8366 C   0  0  0  0  0  0  0  0  0 17  0  0
   -3.1237    0.0327   -2.2399 C   0  0  0  0  0  0  0  0  0 18  0  0
   -2.7241   -1.2644   -2.6170 C   0  0  0  0  0  0  0  0  0 22  0  0
   -2.0388   -1.4839   -3.4210 H   0  0  0  0  0  0  0  0  0 23  0  0
   -3.2604   -2.2644   -1.8266 C   0  0  0  0  0  0  0  0  0 21  0  0
   -3.0319   -3.6813   -1.9816 C   0  0  0  0  0  0  0  0  0 24  0  0
   -2.3035   -4.1298   -2.8407 O   0  0  0  0  0  0  0  0  0 25  0  0
   -3.7366   -4.5514   -0.9609 C   0  0  0  0  0  0  0  0  0 26  0  0
   -3.4469   -4.2678    0.0456 H   0  0  0  0  0  0  0  0  0 27  0  0
   -3.4791   -5.5883   -1.1298 H   0  0  0  0  0  0  0  0  0 28  0  0
   -4.8140   -4.4399   -1.0555 H   0  0  0  0  0  0  0  0  0 29  0  0
   -4.3360   -1.5712   -0.6355 S   0  0  0  0  0  0  0  0  0 20  0  0
   -4.0231    0.0019   -1.2223 C   0  0  0  0  0  0  0  0  0 19  0  0
   -4.4935    0.8332   -0.7278 H   0  0  0  0  0  0  0  0  0 30  0  0
   -2.3515    1.1474   -3.8981 H   0  0  0  0  0  0  0  0  0 31  0  0
   -3.3130    2.1146   -2.7551 H   0  0  0  0  0  0  0  0  0 32  0  0
   -1.5727    2.0964   -0.7867 C   0  0  0  0  0  0  0  0  0 11  0  0
   -2.3843    2.8204   -0.7182 H   0  0  0  0  0  0  0  0  0 15  0  0
   -1.8719    1.1959   -0.2026 H   0  0  0  0  0  0  0  0  0 16  0  0
   -0.3239    2.7061   -0.1651 C   0  0  0  0  0  0  0  0  0 12  0  0
   -0.0990    3.6433   -0.6757 H   0  0  0  0  0  0  0  0  0 13  0  0
   -0.4901    2.9049    0.8946 H   0  0  0  0  0  0  0  0  0 14  0  0
    0.3581   -0.4018    3.8197 H   0  0  0  0  0  0  0  0  0 54  0  0
    1.2308   -1.3868    2.6187 H   0  0  0  0  0  0  0  0  0 55  0  0
   -0.1417   -2.0725    3.5011 H   0  0  0  0  0  0  0  0  0 56  0  0
  1  2  1  0
  2  3  1  0
  2  4  1  0
  2  5  1  0
  5  6  1  0
  6  7  2  0
  6  8  1  0
  8  9  1  1
  9 10  1  0
  9 11  1  0
  9 12  1  0
 12 13  1  0
 13 14  4  0
 14 15  1  0
 14 16  4  0
 16 17  1  0
 16 18  4  0
 18 19  1  0
 18 20  4  0
 20 21  1  0
 20 22  4  0
 22 23  1  0
 12 24  1  0
 12 25  1  0
  8 26  1  0
 26 27  1  0
 26 28  1  0
 26 29  1  0
 29 30  1  0
 29 31  1  0
 29 32  1  0
 32 33  1  0
 33 34  1  0
 34 35  2  0
 35 36  1  0
 35 37  1  0
 37 38  2  0
 38 39  1  0
 38 40  1  0
 40 41  1  0
 40 42  1  0
 40 43  1  0
 37 44  1  0
 44 45  2  0
 45 46  1  0
 33 47  1  0
 33 48  1  0
 32 49  1  0
 49 50  1  0
 49 51  1  0
 49 52  1  0
 52 53  1  0
 52 54  1  0
  1 55  1  0
  1 56  1  0
  1 57  1  0
 52  8  1  0
 22 13  4  0
 45 34  1  0
M  CHG  2  39  -1  44   1
M  END
>  <sample_id>  (514)
train::CCOC(=O)C1(CCc2ccccc2)CCN(Cc2csc(C(C)=O)c2)CC1__gen0000

>  <partition>  (514)
BAT_EXTERNAL_CONFIRM

>  <method>  (514)
BA_seed193

>  <candidate>  (514)
primary

$$$$
train::CCOC(=O)C1(CCc2ccccc2)CCN(Cc2csc(C(C)=O)c2)CC1__gen0001
     RDKit          3D

 57 59  0  0  0  0  0  0  0  0999 V2000
    2.7903    0.5786    2.0134 C   0  0  0  0  0  0  0  0  0  0  0  0
    1.5204   -0.2489    2.0300 C   0  0  0  0  0  0  0  0  0  1  0  0
    1.0276   -0.2056    3.0102 H   0  0  0  0  0  0  0  0  0  2  0  0
    1.7318   -1.2980    1.7987 H   0  0  0  0  0  0  0  0  0  3  0  0
    0.6001    0.2669    1.0586 O   0  0  0  0  0  0  0  0  0  4  0  0
   -0.3591   -0.5441    0.6399 C   0  0  0  0  0  0  0  0  0  5  0  0
   -0.4878   -1.6741    1.0346 O   0  0  0  0  0  0  0  0  0  6  0  0
   -1.2646    0.1045   -0.4078 C   0  0  1  0  0  0  0  0  0  7  0  0
   -2.4336    0.8109    0.3100 C   0  0  0  0  0  0  0  0  0 37  0  0
   -2.9403    1.4561   -0.4051 H   0  0  0  0  0  0  0  0  0 38  0  0
   -3.1329    0.0436    0.6429 H   0  0  0  0  0  0  0  0  0 39  0  0
   -2.0130    1.6477    1.5175 C   0  0  0  0  0  0  0  0  0 40  0  0
   -3.1630    2.4484    2.0223 C   0  0  0  0  0  0  0  0  0 41  0  0
   -4.1623    1.8326    2.7582 C   0  0  0  0  0  0  0  0  0 42  0  0
   -4.0772    0.7845    3.0099 H   0  0  0  0  0  0  0  0  0 51  0  0
   -5.2514    2.5657    3.2154 C   0  0  0  0  0  0  0  0  0 43  0  0
   -6.0145    2.0842    3.7985 H   0  0  0  0  0  0  0  0  0 50  0  0
   -5.3554    3.9182    2.9220 C   0  0  0  0  0  0  0  0  0 44  0  0
   -6.2041    4.4904    3.2423 H   0  0  0  0  0  0  0  0  0 49  0  0
   -4.3669    4.5372    2.1719 C   0  0  0  0  0  0  0  0  0 45  0  0
   -4.4382    5.5738    1.9179 H   0  0  0  0  0  0  0  0  0 48  0  0
   -3.2833    3.7976    1.7126 C   0  0  0  0  0  0  0  0  0 46  0  0
   -2.5062    4.2803    1.1302 H   0  0  0  0  0  0  0  0  0 47  0  0
   -1.6333    0.9703    2.2976 H   0  0  0  0  0  0  0  0  0 52  0  0
   -1.1872    2.3158    1.2579 H   0  0  0  0  0  0  0  0  0 53  0  0
   -0.4716    1.0887   -1.2670 C   0  0  0  0  0  0  0  0  0  8  0  0
   -1.1567    1.5490   -1.9811 H   0  0  0  0  0  0  0  0  0 35  0  0
   -0.0139    1.8651   -0.6606 H   0  0  0  0  0  0  0  0  0 36  0  0
    0.6250    0.3710   -2.0459 C   0  0  0  0  0  0  0  0  0  9  0  0
    1.3536   -0.0384   -1.3238 H   0  0  0  0  0  0  0  0  0 33  0  0
    1.1427    1.0863   -2.6825 H   0  0  0  0  0  0  0  0  0 34  0  0
    0.0603   -0.6703   -2.8930 N   0  0  0  0  0  0  0  0  0 10  0  0
    1.0718   -1.3115   -3.7351 C   0  0  0  0  0  0  0  0  0 17  0  0
    2.0952   -2.0851   -2.9315 C   0  0  0  0  0  0  0  0  0 18  0  0
    3.1071   -1.4982   -2.1758 C   0  0  0  0  0  0  0  0  0 22  0  0
    3.3694   -0.4495   -2.1878 H   0  0  0  0  0  0  0  0  0 23  0  0
    3.7914   -2.3969   -1.3828 C   0  0  0  0  0  0  0  0  0 21  0  0
    4.7839   -2.0684   -0.3749 C   0  0  0  0  0  0  0  0  0 24  0  0
    5.0435   -0.9105   -0.0910 O   0  0  0  0  0  0  0  0  0 25  0  0
    5.4466   -3.2446    0.2956 C   0  0  0  0  0  0  0  0  0 26  0  0
    5.9298   -3.8879   -0.4388 H   0  0  0  0  0  0  0  0  0 27  0  0
    6.1942   -2.8815    1.0042 H   0  0  0  0  0  0  0  0  0 28  0  0
    4.6914   -3.8223    0.8253 H   0  0  0  0  0  0  0  0  0 29  0  0
    3.1714   -4.0105   -1.6143 S   0  0  0  0  0  0  0  0  0 20  0  0
    2.0400   -3.4432   -2.7363 C   0  0  0  0  0  0  0  0  0 19  0  0
    1.3391   -4.1367   -3.1739 H   0  0  0  0  0  0  0  0  0 30  0  0
    0.5558   -1.9714   -4.4375 H   0  0  0  0  0  0  0  0  0 31  0  0
    1.5743   -0.5214   -4.3100 H   0  0  0  0  0  0  0  0  0 32  0  0
   -0.6701   -1.6522   -2.1137 C   0  0  0  0  0  0  0  0  0 11  0  0
   -0.0200   -2.1913   -1.4083 H   0  0  0  0  0  0  0  0  0 15  0  0
   -1.1198   -2.3760   -2.8054 H   0  0  0  0  0  0  0  0  0 16  0  0
   -1.8103   -0.9863   -1.3239 C   0  0  0  0  0  0  0  0  0 12  0  0
   -2.3164   -1.7454   -0.7338 H   0  0  0  0  0  0  0  0  0 13  0  0
   -2.5100   -0.5306   -2.0300 H   0  0  0  0  0  0  0  0  0 14  0  0
    2.5478    1.6354    2.1349 H   0  0  0  0  0  0  0  0  0 54  0  0
    3.3270    0.4286    1.0748 H   0  0  0  0  0  0  0  0  0 55  0  0
    3.4316    0.2697    2.8246 H   0  0  0  0  0  0  0  0  0 56  0  0
  1  2  1  0
  2  3  1  0
  2  4  1  0
  2  5  1  0
  5  6  1  0
  6  7  2  0
  6  8  1  0
  8  9  1  1
  9 10  1  0
  9 11  1  0
  9 12  1  0
 12 13  1  0
 13 14  4  0
 14 15  1  0
 14 16  4  0
 16 17  1  0
 16 18  4  0
 18 19  1  0
 18 20  4  0
 20 21  1  0
 20 22  4  0
 22 23  1  0
 12 24  1  0
 12 25  1  0
  8 26  1  0
 26 27  1  0
 26 28  1  0
 26 29  1  0
 29 30  1  0
 29 31  1  0
 29 32  1  0
 32 33  1  0
 33 34  1  0
 34 35  2  0
 35 36  1  0
 35 37  1  0
 37 38  2  0
 38 39  1  0
 38 40  1  0
 40 41  1  0
 40 42  1  0
 40 43  1  0
 37 44  1  0
 44 45  2  0
 45 46  1  0
 33 47  1  0
 33 48  1  0
 32 49  1  0
 49 50  1  0
 49 51  1  0
 49 52  1  0
 52 53  1  0
 52 54  1  0
  1 55  1  0
  1 56  1  0
  1 57  1  0
 52  8  1  0
 22 13  4  0
 45 34  1  0
M  CHG  2  39  -1  44   1
M  END
>  <sample_id>  (515)
train::CCOC(=O)C1(CCc2ccccc2)CCN(Cc2csc(C(C)=O)c2)CC1__gen0001

>  <partition>  (515)
BAT_EXTERNAL_CONFIRM

>  <method>  (515)
BA_seed193

>  <candidate>  (515)
primary

$$$$
train::CCOC(=O)C1(CCc2ccccc2)CCN(Cc2csc(C(C)=O)c2)CC1__gen0002
     RDKit          3D

 57 59  0  0  0  0  0  0  0  0999 V2000
   -0.6767    4.3683   -1.0363 C   0  0  0  0  0  0  0  0  0  0  0  0
   -1.4712    3.1738   -1.5536 C   0  0  0  0  0  0  0  0  0  1  0  0
   -1.3322    3.0832   -2.6315 H   0  0  0  0  0  0  0  0  0  2  0  0
   -2.5176    3.2406   -1.3043 H   0  0  0  0  0  0  0  0  0  3  0  0
   -1.0384    1.9405   -0.9414 O   0  0  0  0  0  0  0  0  0  4  0  0
    0.0908    1.3920   -1.4057 C   0  0  0  0  0  0  0  0  0  5  0  0
    0.7479    1.8635   -2.3021 O   0  0  0  0  0  0  0  0  0  6  0  0
    0.4376    0.1087   -0.6612 C   0  0  1  0  0  0  0  0  0  7  0  0
    1.3287    0.3392    0.5773 C   0  0  0  0  0  0  0  0  0 37  0  0
    0.8714   -0.1361    1.4536 H   0  0  0  0  0  0  0  0  0 38  0  0
    2.2727   -0.1745    0.4047 H   0  0  0  0  0  0  0  0  0 39  0  0
    1.6953    1.7733    0.9629 C   0  0  0  0  0  0  0  0  0 40  0  0
    0.5640    2.7407    1.2187 C   0  0  0  0  0  0  0  0  0 41  0  0
   -0.5030    2.4087    2.0671 C   0  0  0  0  0  0  0  0  0 42  0  0
   -0.5112    1.4317    2.5326 H   0  0  0  0  0  0  0  0  0 51  0  0
   -1.5189    3.2880    2.3158 C   0  0  0  0  0  0  0  0  0 43  0  0
   -2.3263    3.0066    2.9569 H   0  0  0  0  0  0  0  0  0 50  0  0
   -1.4980    4.5701    1.7476 C   0  0  0  0  0  0  0  0  0 44  0  0
   -2.3031    5.2705    1.9444 H   0  0  0  0  0  0  0  0  0 49  0  0
   -0.4297    4.9358    0.9286 C   0  0  0  0  0  0  0  0  0 45  0  0
   -0.3798    5.9236    0.5261 H   0  0  0  0  0  0  0  0  0 48  0  0
    0.5985    4.0218    0.6645 C   0  0  0  0  0  0  0  0  0 46  0  0
    1.4507    4.2976    0.0603 H   0  0  0  0  0  0  0  0  0 47  0  0
    2.2835    1.7114    1.8782 H   0  0  0  0  0  0  0  0  0 52  0  0
    2.3267    2.2150    0.1767 H   0  0  0  0  0  0  0  0  0 53  0  0
   -0.8442   -0.6145   -0.2209 C   0  0  0  0  0  0  0  0  0  8  0  0
   -0.5684   -1.4570    0.4026 H   0  0  0  0  0  0  0  0  0 35  0  0
   -1.4712    0.0705    0.3700 H   0  0  0  0  0  0  0  0  0 36  0  0
   -1.6599   -1.1029   -1.4418 C   0  0  0  0  0  0  0  0  0  9  0  0
   -2.0035   -0.2387   -2.0023 H   0  0  0  0  0  0  0  0  0 33  0  0
   -2.5257   -1.6688   -1.1092 H   0  0  0  0  0  0  0  0  0 34  0  0
   -0.9079   -1.9279   -2.3702 N   0  0  0  0  0  0  0  0  0 10  0  0
   -0.8409   -3.3498   -2.0869 C   0  0  0  0  0  0  0  0  0 17  0  0
    0.0105   -3.7875   -0.9089 C   0  0  0  0  0  0  0  0  0 18  0  0
   -0.4666   -3.8552    0.4243 C   0  0  0  0  0  0  0  0  0 22  0  0
   -1.4644   -3.6411    0.7141 H   0  0  0  0  0  0  0  0  0 23  0  0
    0.4913   -4.2377    1.3127 C   0  0  0  0  0  0  0  0  0 21  0  0
    0.2996   -4.3753    2.7532 C   0  0  0  0  0  0  0  0  0 24  0  0
   -0.7580   -4.1205    3.2895 O   0  0  0  0  0  0  0  0  0 25  0  0
    1.5102   -4.8502    3.5436 C   0  0  0  0  0  0  0  0  0 26  0  0
    2.3231   -4.1362    3.4137 H   0  0  0  0  0  0  0  0  0 27  0  0
    1.8361   -5.8220    3.1615 H   0  0  0  0  0  0  0  0  0 28  0  0
    1.2542   -4.9285    4.5929 H   0  0  0  0  0  0  0  0  0 29  0  0
    2.0103   -4.5453    0.5279 S   0  0  0  0  0  0  0  0  0 20  0  0
    1.3156   -4.1411   -1.0000 C   0  0  0  0  0  0  0  0  0 19  0  0
    1.9287   -4.1958   -1.8805 H   0  0  0  0  0  0  0  0  0 30  0  0
   -0.4578   -3.8409   -2.9942 H   0  0  0  0  0  0  0  0  0 31  0  0
   -1.8663   -3.6904   -1.9223 H   0  0  0  0  0  0  0  0  0 32  0  0
    0.3265   -1.2830   -2.7845 C   0  0  0  0  0  0  0  0  0 11  0  0
    0.8831   -1.9866   -3.4137 H   0  0  0  0  0  0  0  0  0 15  0  0
    0.0541   -0.4254   -3.4015 H   0  0  0  0  0  0  0  0  0 16  0  0
    1.2293   -0.8000   -1.6306 C   0  0  0  0  0  0  0  0  0 12  0  0
    1.6363   -1.6335   -1.0825 H   0  0  0  0  0  0  0  0  0 13  0  0
    2.0459   -0.2167   -2.0619 H   0  0  0  0  0  0  0  0  0 14  0  0
   -0.7321    4.4339    0.0404 H   0  0  0  0  0  0  0  0  0 54  0  0
   -1.1035    5.2876   -1.4715 H   0  0  0  0  0  0  0  0  0 55  0  0
    0.3539    4.2867   -1.3429 H   0  0  0  0  0  0  0  0  0 56  0  0
  1  2  1  0
  2  3  1  0
  2  4  1  0
  2  5  1  0
  5  6  1  0
  6  7  2  0
  6  8  1  0
  8  9  1  1
  9 10  1  0
  9 11  1  0
  9 12  1  0
 12 13  1  0
 13 14  4  0
 14 15  1  0
 14 16  4  0
 16 17  1  0
 16 18  4  0
 18 19  1  0
 18 20  4  0
 20 21  1  0
 20 22  4  0
 22 23  1  0
 12 24  1  0
 12 25  1  0
  8 26  1  0
 26 27  1  0
 26 28  1  0
 26 29  1  0
 29 30  1  0
 29 31  1  0
 29 32  1  0
 32 33  1  0
 33 34  1  0
 34 35  2  0
 35 36  1  0
 35 37  1  0
 37 38  2  0
 38 39  1  0
 38 40  1  0
 40 41  1  0
 40 42  1  0
 40 43  1  0
 37 44  1  0
 44 45  2  0
 45 46  1  0
 33 47  1  0
 33 48  1  0
 32 49  1  0
 49 50  1  0
 49 51  1  0
 49 52  1  0
 52 53  1  0
 52 54  1  0
  1 55  1  0
  1 56  1  0
  1 57  1  0
 52  8  1  0
 22 13  4  0
 45 34  1  0
M  CHG  2  39  -1  44   1
M  END
>  <sample_id>  (516)
train::CCOC(=O)C1(CCc2ccccc2)CCN(Cc2csc(C(C)=O)c2)CC1__gen0002

>  <partition>  (516)
BAT_EXTERNAL_CONFIRM

>  <method>  (516)
BA_seed193

>  <candidate>  (516)
primary

$$$$
train::CN1CCN(C(=O)c2ccc3c(=O)n4c(nc3c2)CCCCC4)CC1__gen0000
     RDKit          3D

 49 52  0  0  0  0  0  0  0  0999 V2000
    5.5573    0.8274    3.8306 C   0  0  0  0  0  0  0  0  0  0  0  0
    4.8149   -0.3117    3.3347 N   0  0  0  0  0  0  0  0  0  1  0  0
    4.1608   -0.1053    2.0514 C   0  0  0  0  0  0  0  0  0  2  0  0
    4.6461    0.7227    1.5285 H   0  0  0  0  0  0  0  0  0 44  0  0
    4.2664   -1.0082    1.4505 H   0  0  0  0  0  0  0  0  0 45  0  0
    2.6650    0.1952    2.1981 C   0  0  0  0  0  0  0  0  0  3  0  0
    2.5116    1.0874    2.8055 H   0  0  0  0  0  0  0  0  0 42  0  0
    2.2147    0.3708    1.2080 H   0  0  0  0  0  0  0  0  0 43  0  0
    2.0267   -0.9621    2.8044 N   0  0  0  0  0  0  0  0  0  4  0  0
    0.8132   -1.4198    2.5190 C   0  0  0  0  0  0  0  0  0  5  0  0
    0.3537   -2.4318    3.0185 O   0  0  0  0  0  0  0  0  0  6  0  0
    0.0211   -0.6021    1.5261 C   0  0  0  0  0  0  0  0  0  7  0  0
   -0.1731   -1.0836    0.2417 C   0  0  0  0  0  0  0  0  0  8  0  0
    0.2821   -2.0126   -0.0833 H   0  0  0  0  0  0  0  0  0 35  0  0
   -0.9664   -0.3621   -0.6513 C   0  0  0  0  0  0  0  0  0  9  0  0
   -1.1440   -0.8433   -1.9245 N   0  0  0  0  0  0  0  0  0 10  0  0
   -1.8763   -0.1959   -2.7606 C   0  0  0  0  0  0  0  0  0 11  0  0
   -2.4574    0.9988   -2.4691 N   0  0  0  0  0  0  0  0  0 12  0  0
   -2.3266    1.6101   -1.2051 C   0  0  0  0  0  0  0  0  0 13  0  0
   -2.8399    2.6879   -0.9819 O   0  0  0  0  0  0  0  0  0 14  0  0
   -1.5272    0.8566   -0.2477 C   0  0  0  0  0  0  0  0  0 15  0  0
   -1.3368    1.3169    1.0481 C   0  0  0  0  0  0  0  0  0 16  0  0
   -1.8161    2.2444    1.3357 H   0  0  0  0  0  0  0  0  0 19  0  0
   -0.5801    0.5973    1.9343 C   0  0  0  0  0  0  0  0  0 17  0  0
   -0.4317    0.9408    2.9406 H   0  0  0  0  0  0  0  0  0 18  0  0
   -3.2492    1.7315   -3.4374 C   0  0  0  0  0  0  0  0  0 20  0  0
   -2.6689    1.8878   -4.3585 H   0  0  0  0  0  0  0  0  0 33  0  0
   -3.4536    2.7071   -2.9886 H   0  0  0  0  0  0  0  0  0 34  0  0
   -4.5708    1.0347   -3.7638 C   0  0  0  0  0  0  0  0  0 21  0  0
   -4.9987    0.6235   -2.8515 H   0  0  0  0  0  0  0  0  0 31  0  0
   -5.2727    1.7786   -4.1429 H   0  0  0  0  0  0  0  0  0 32  0  0
   -4.4188   -0.0709   -4.8070 C   0  0  0  0  0  0  0  0  0 22  0  0
   -4.0082    0.3671   -5.7220 H   0  0  0  0  0  0  0  0  0 29  0  0
   -5.4121   -0.4514   -5.0440 H   0  0  0  0  0  0  0  0  0 30  0  0
   -3.5279   -1.2202   -4.3469 C   0  0  0  0  0  0  0  0  0 23  0  0
   -3.9356   -1.6673   -3.4478 H   0  0  0  0  0  0  0  0  0 24  0  0
   -3.5433   -1.9818   -5.1345 H   0  0  0  0  0  0  0  0  0 25  0  0
   -2.0744   -0.8147   -4.1059 C   0  0  0  0  0  0  0  0  0 26  0  0
   -1.7312   -0.1253   -4.8817 H   0  0  0  0  0  0  0  0  0 27  0  0
   -1.4408   -1.6983   -4.1260 H   0  0  0  0  0  0  0  0  0 28  0  0
    2.8486   -1.7230    3.7375 C   0  0  0  0  0  0  0  0  0 36  0  0
    2.1930   -2.1274    4.5039 H   0  0  0  0  0  0  0  0  0 40  0  0
    3.3311   -2.5541    3.2262 H   0  0  0  0  0  0  0  0  0 41  0  0
    3.9022   -0.8082    4.3581 C   0  0  0  0  0  0  0  0  0 37  0  0
    4.4846   -1.3811    5.0869 H   0  0  0  0  0  0  0  0  0 38  0  0
    3.4066    0.0187    4.8847 H   0  0  0  0  0  0  0  0  0 39  0  0
    6.2591    1.1670    3.0693 H   0  0  0  0  0  0  0  0  0 46  0  0
    4.9131    1.6680    4.1203 H   0  0  0  0  0  0  0  0  0 47  0  0
    6.1100    0.5221    4.7194 H   0  0  0  0  0  0  0  0  0 48  0  0
  1  2  1  0
  2  3  1  0
  3  4  1  0
  3  5  1  0
  3  6  1  0
  6  7  1  0
  6  8  1  0
  6  9  1  0
  9 10  1  0
 10 11  2  0
 10 12  1  0
 12 13  4  0
 13 14  1  0
 13 15  4  0
 15 16  4  0
 16 17  4  0
 17 18  4  0
 18 19  4  0
 19 20  2  0
 19 21  4  0
 21 22  4  0
 22 23  1  0
 22 24  4  0
 24 25  1  0
 18 26  1  0
 26 27  1  0
 26 28  1  0
 26 29  1  0
 29 30  1  0
 29 31  1  0
 29 32  1  0
 32 33  1  0
 32 34  1  0
 32 35  1  0
 35 36  1  0
 35 37  1  0
 35 38  1  0
 38 39  1  0
 38 40  1  0
  9 41  1  0
 41 42  1  0
 41 43  1  0
 41 44  1  0
 44 45  1  0
 44 46  1  0
  1 47  1  0
  1 48  1  0
  1 49  1  0
 44  2  1  0
 24 12  4  0
 21 15  4  0
 38 17  1  0
M  END
>  <sample_id>  (517)
train::CN1CCN(C(=O)c2ccc3c(=O)n4c(nc3c2)CCCCC4)CC1__gen0000

>  <partition>  (517)
BAT_EXTERNAL_CONFIRM

>  <method>  (517)
BA_seed193

>  <candidate>  (517)
primary

$$$$
train::CN1CCN(C(=O)c2ccc3c(=O)n4c(nc3c2)CCCCC4)CC1__gen0001
     RDKit          3D

 49 52  0  0  0  0  0  0  0  0999 V2000
   -3.9101    0.4458   -4.6516 C   0  0  0  0  0  0  0  0  0  0  0  0
   -3.9020    0.0842   -3.2588 N   0  0  0  0  0  0  0  0  0  1  0  0
   -2.5914   -0.1462   -2.6961 C   0  0  0  0  0  0  0  0  0  2  0  0
   -2.0099   -0.7474   -3.3951 H   0  0  0  0  0  0  0  0  0 44  0  0
   -2.7301   -0.6946   -1.7548 H   0  0  0  0  0  0  0  0  0 45  0  0
   -1.8411    1.1690   -2.4003 C   0  0  0  0  0  0  0  0  0  3  0  0
   -0.8867    0.9603   -1.9086 H   0  0  0  0  0  0  0  0  0 42  0  0
   -1.6498    1.7056   -3.3272 H   0  0  0  0  0  0  0  0  0 43  0  0
   -2.6585    1.9989   -1.5457 N   0  0  0  0  0  0  0  0  0  4  0  0
   -2.3326    2.4101   -0.2975 C   0  0  0  0  0  0  0  0  0  5  0  0
   -3.0541    3.1390    0.3614 O   0  0  0  0  0  0  0  0  0  6  0  0
   -0.9994    1.9871    0.2497 C   0  0  0  0  0  0  0  0  0  7  0  0
   -0.8253    0.6814    0.6880 C   0  0  0  0  0  0  0  0  0  8  0  0
   -1.6222   -0.0460    0.6159 H   0  0  0  0  0  0  0  0  0 35  0  0
    0.4051    0.3052    1.2529 C   0  0  0  0  0  0  0  0  0  9  0  0
    0.5688   -0.9834    1.6712 N   0  0  0  0  0  0  0  0  0 10  0  0
    1.6860   -1.3351    2.1903 C   0  0  0  0  0  0  0  0  0 11  0  0
    2.7335   -0.4835    2.4119 N   0  0  0  0  0  0  0  0  0 12  0  0
    2.6971    0.8490    1.9752 C   0  0  0  0  0  0  0  0  0 13  0  0
    3.6544    1.5734    2.1364 O   0  0  0  0  0  0  0  0  0 14  0  0
    1.4322    1.2538    1.3731 C   0  0  0  0  0  0  0  0  0 15  0  0
    1.2296    2.5580    0.9342 C   0  0  0  0  0  0  0  0  0 16  0  0
    2.0372    3.2692    1.0422 H   0  0  0  0  0  0  0  0  0 19  0  0
    0.0267    2.9278    0.3766 C   0  0  0  0  0  0  0  0  0 17  0  0
   -0.1388    3.9265    0.0345 H   0  0  0  0  0  0  0  0  0 18  0  0
    3.9801   -0.9345    3.0096 C   0  0  0  0  0  0  0  0  0 20  0  0
    3.7709   -1.3897    3.9849 H   0  0  0  0  0  0  0  0  0 33  0  0
    4.5800   -0.0301    3.1623 H   0  0  0  0  0  0  0  0  0 34  0  0
    4.7521   -1.9207    2.1219 C   0  0  0  0  0  0  0  0  0 21  0  0
    5.8025   -1.8705    2.4049 H   0  0  0  0  0  0  0  0  0 31  0  0
    4.6856   -1.5927    1.0803 H   0  0  0  0  0  0  0  0  0 32  0  0
    4.2622   -3.3573    2.2625 C   0  0  0  0  0  0  0  0  0 22  0  0
    4.9209   -3.9984    1.6672 H   0  0  0  0  0  0  0  0  0 29  0  0
    4.3483   -3.6756    3.3013 H   0  0  0  0  0  0  0  0  0 30  0  0
    2.8258   -3.5557    1.7903 C   0  0  0  0  0  0  0  0  0 23  0  0
    2.5897   -4.6181    1.8626 H   0  0  0  0  0  0  0  0  0 24  0  0
    2.7422   -3.2658    0.7476 H   0  0  0  0  0  0  0  0  0 25  0  0
    1.8209   -2.7640    2.6290 C   0  0  0  0  0  0  0  0  0 26  0  0
    0.8294   -3.2151    2.5014 H   0  0  0  0  0  0  0  0  0 27  0  0
    2.0627   -2.8200    3.6887 H   0  0  0  0  0  0  0  0  0 28  0  0
   -3.9585    2.2867   -2.0994 C   0  0  0  0  0  0  0  0  0 36  0  0
   -3.8296    2.8814   -3.0038 H   0  0  0  0  0  0  0  0  0 40  0  0
   -4.5118    2.8790   -1.3646 H   0  0  0  0  0  0  0  0  0 41  0  0
   -4.6802    0.9604   -2.4061 C   0  0  0  0  0  0  0  0  0 37  0  0
   -5.6499    1.1747   -2.8837 H   0  0  0  0  0  0  0  0  0 38  0  0
   -4.8667    0.4442   -1.4541 H   0  0  0  0  0  0  0  0  0 39  0  0
   -3.4195    1.3914   -4.8814 H   0  0  0  0  0  0  0  0  0 46  0  0
   -3.4388   -0.3491   -5.2081 H   0  0  0  0  0  0  0  0  0 47  0  0
   -4.9366    0.5314   -4.9910 H   0  0  0  0  0  0  0  0  0 48  0  0
  1  2  1  0
  2  3  1  0
  3  4  1  0
  3  5  1  0
  3  6  1  0
  6  7  1  0
  6  8  1  0
  6  9  1  0
  9 10  1  0
 10 11  2  0
 10 12  1  0
 12 13  4  0
 13 14  1  0
 13 15  4  0
 15 16  4  0
 16 17  4  0
 17 18  4  0
 18 19  4  0
 19 20  2  0
 19 21  4  0
 21 22  4  0
 22 23  1  0
 22 24  4  0
 24 25  1  0
 18 26  1  0
 26 27  1  0
 26 28  1  0
 26 29  1  0
 29 30  1  0
 29 31  1  0
 29 32  1  0
 32 33  1  0
 32 34  1  0
 32 35  1  0
 35 36  1  0
 35 37  1  0
 35 38  1  0
 38 39  1  0
 38 40  1  0
  9 41  1  0
 41 42  1  0
 41 43  1  0
 41 44  1  0
 44 45  1  0
 44 46  1  0
  1 47  1  0
  1 48  1  0
  1 49  1  0
 44  2  1  0
 24 12  4  0
 21 15  4  0
 38 17  1  0
M  END
>  <sample_id>  (518)
train::CN1CCN(C(=O)c2ccc3c(=O)n4c(nc3c2)CCCCC4)CC1__gen0001

>  <partition>  (518)
BAT_EXTERNAL_CONFIRM

>  <method>  (518)
BA_seed193

>  <candidate>  (518)
primary

$$$$
train::CN1CCN(C(=O)c2ccc3c(=O)n4c(nc3c2)CCCCC4)CC1__gen0002
     RDKit          3D

 49 52  0  0  0  0  0  0  0  0999 V2000
    4.2040    4.0098   -2.3538 C   0  0  0  0  0  0  0  0  0  0  0  0
    2.7792    4.2726   -2.2604 N   0  0  0  0  0  0  0  0  0  1  0  0
    1.9706    3.0585   -2.3955 C   0  0  0  0  0  0  0  0  0  2  0  0
    2.5178    2.2903   -2.9476 H   0  0  0  0  0  0  0  0  0 44  0  0
    1.0781    3.3200   -2.9851 H   0  0  0  0  0  0  0  0  0 45  0  0
    1.5178    2.4856   -1.0564 C   0  0  0  0  0  0  0  0  0  3  0  0
    0.9077    1.5961   -1.2198 H   0  0  0  0  0  0  0  0  0 42  0  0
    2.3981    2.1827   -0.4635 H   0  0  0  0  0  0  0  0  0 43  0  0
    0.7446    3.4748   -0.3401 N   0  0  0  0  0  0  0  0  0  4  0  0
   -0.0204    3.1928    0.7373 C   0  0  0  0  0  0  0  0  0  5  0  0
   -0.6109    4.0515    1.3734 O   0  0  0  0  0  0  0  0  0  6  0  0
   -0.1560    1.7453    1.0973 C   0  0  0  0  0  0  0  0  0  7  0  0
   -1.0434    0.9219    0.4469 C   0  0  0  0  0  0  0  0  0  8  0  0
   -1.6563    1.3070   -0.3612 H   0  0  0  0  0  0  0  0  0 35  0  0
   -1.1885   -0.4069    0.8370 C   0  0  0  0  0  0  0  0  0  9  0  0
   -2.0838   -1.2034    0.1575 N   0  0  0  0  0  0  0  0  0 10  0  0
   -2.2225   -2.4326    0.5299 C   0  0  0  0  0  0  0  0  0 11  0  0
   -1.5415   -3.0039    1.5570 N   0  0  0  0  0  0  0  0  0 12  0  0
   -0.5861   -2.2877    2.2980 C   0  0  0  0  0  0  0  0  0 13  0  0
    0.0175   -2.8264    3.2139 O   0  0  0  0  0  0  0  0  0 14  0  0
   -0.4166   -0.9053    1.9009 C   0  0  0  0  0  0  0  0  0 15  0  0
    0.4953   -0.0725    2.5528 C   0  0  0  0  0  0  0  0  0 16  0  0
    1.0581   -0.4733    3.3819 H   0  0  0  0  0  0  0  0  0 19  0  0
    0.6245    1.2343    2.1628 C   0  0  0  0  0  0  0  0  0 17  0  0
    1.3064    1.9003    2.6666 H   0  0  0  0  0  0  0  0  0 18  0  0
   -1.7441   -4.4028    1.9550 C   0  0  0  0  0  0  0  0  0 20  0  0
   -2.8083   -4.5642    2.1419 H   0  0  0  0  0  0  0  0  0 33  0  0
   -1.1789   -4.5279    2.8691 H   0  0  0  0  0  0  0  0  0 34  0  0
   -1.2299   -5.3586    0.8792 C   0  0  0  0  0  0  0  0  0 21  0  0
   -1.0268   -6.3287    1.3488 H   0  0  0  0  0  0  0  0  0 31  0  0
   -0.2943   -5.0082    0.4561 H   0  0  0  0  0  0  0  0  0 32  0  0
   -2.2384   -5.6026   -0.2438 C   0  0  0  0  0  0  0  0  0 22  0  0
   -3.1697   -6.0010    0.1779 H   0  0  0  0  0  0  0  0  0 29  0  0
   -1.8471   -6.3757   -0.9190 H   0  0  0  0  0  0  0  0  0 30  0  0
   -2.5538   -4.3631   -1.0563 C   0  0  0  0  0  0  0  0  0 23  0  0
   -1.6381   -3.9703   -1.5136 H   0  0  0  0  0  0  0  0  0 24  0  0
   -3.2221   -4.6378   -1.8671 H   0  0  0  0  0  0  0  0  0 25  0  0
   -3.2264   -3.2473   -0.2360 C   0  0  0  0  0  0  0  0  0 26  0  0
   -3.9638   -3.6757    0.4384 H   0  0  0  0  0  0  0  0  0 27  0  0
   -3.7334   -2.5511   -0.9120 H   0  0  0  0  0  0  0  0  0 28  0  0
    0.9569    4.8539   -0.7409 C   0  0  0  0  0  0  0  0  0 36  0  0
    0.3275    5.0924   -1.6090 H   0  0  0  0  0  0  0  0  0 40  0  0
    0.6695    5.4776    0.0953 H   0  0  0  0  0  0  0  0  0 41  0  0
    2.4252    5.0387   -1.0933 C   0  0  0  0  0  0  0  0  0 37  0  0
    2.6258    6.0923   -1.3227 H   0  0  0  0  0  0  0  0  0 38  0  0
    3.0411    4.7627   -0.2234 H   0  0  0  0  0  0  0  0  0 39  0  0
    4.7365    4.9580   -2.2893 H   0  0  0  0  0  0  0  0  0 46  0  0
    4.5701    3.3639   -1.5441 H   0  0  0  0  0  0  0  0  0 47  0  0
    4.4285    3.5439   -3.3211 H   0  0  0  0  0  0  0  0  0 48  0  0
  1  2  1  0
  2  3  1  0
  3  4  1  0
  3  5  1  0
  3  6  1  0
  6  7  1  0
  6  8  1  0
  6  9  1  0
  9 10  1  0
 10 11  2  0
 10 12  1  0
 12 13  4  0
 13 14  1  0
 13 15  4  0
 15 16  4  0
 16 17  4  0
 17 18  4  0
 18 19  4  0
 19 20  2  0
 19 21  4  0
 21 22  4  0
 22 23  1  0
 22 24  4  0
 24 25  1  0
 18 26  1  0
 26 27  1  0
 26 28  1  0
 26 29  1  0
 29 30  1  0
 29 31  1  0
 29 32  1  0
 32 33  1  0
 32 34  1  0
 32 35  1  0
 35 36  1  0
 35 37  1  0
 35 38  1  0
 38 39  1  0
 38 40  1  0
  9 41  1  0
 41 42  1  0
 41 43  1  0
 41 44  1  0
 44 45  1  0
 44 46  1  0
  1 47  1  0
  1 48  1  0
  1 49  1  0
 44  2  1  0
 24 12  4  0
 21 15  4  0
 38 17  1  0
M  END
>  <sample_id>  (519)
train::CN1CCN(C(=O)c2ccc3c(=O)n4c(nc3c2)CCCCC4)CC1__gen0002

>  <partition>  (519)
BAT_EXTERNAL_CONFIRM

>  <method>  (519)
BA_seed193

>  <candidate>  (519)
primary

$$$$
train::CCOc1ccc(C(NC(=O)CC)c2c(O)ccc3ccccc23)cc1__gen0000
     RDKit          3D

 49 51  0  0  0  0  0  0  0  0999 V2000
   -4.4715   -2.7544    4.5228 C   0  0  0  0  0  0  0  0  0  0  0  0
   -3.4581   -1.7792    3.9840 C   0  0  0  0  0  0  0  0  0  1  0  0
   -2.7979   -2.3742    2.8973 O   0  0  0  0  0  0  0  0  0  2  0  0
   -1.8116   -1.6978    2.2513 C   0  0  0  0  0  0  0  0  0  3  0  0
   -1.1738   -2.3735    1.2134 C   0  0  0  0  0  0  0  0  0  4  0  0
   -1.4914   -3.3699    0.9862 H   0  0  0  0  0  0  0  0  0 43  0  0
   -0.1822   -1.7523    0.4789 C   0  0  0  0  0  0  0  0  0  5  0  0
    0.3038   -2.3205   -0.3057 H   0  0  0  0  0  0  0  0  0 42  0  0
    0.2192   -0.4548    0.7684 C   0  0  0  0  0  0  0  0  0  6  0  0
    1.2943    0.2661    0.0097 C   0  0  1  0  0  0  0  0  0 11  0  0
    2.0303   -0.5144   -0.9690 N   0  0  0  0  0  0  0  0  0 12  0  0
    3.3920   -0.5726   -0.9431 C   0  0  0  0  0  0  0  0  0 13  0  0
    4.0403    0.0338   -0.1132 O   0  0  0  0  0  0  0  0  0 14  0  0
    3.9796   -1.3905   -2.0877 C   0  0  0  0  0  0  0  0  0 15  0  0
    5.4960   -1.4438   -1.9675 C   0  0  0  0  0  0  0  0  0 16  0  0
    5.7812   -1.9189   -1.0412 H   0  0  0  0  0  0  0  0  0 17  0  0
    5.9083   -2.0186   -2.8019 H   0  0  0  0  0  0  0  0  0 18  0  0
    5.9158   -0.4435   -1.9887 H   0  0  0  0  0  0  0  0  0 19  0  0
    3.5587   -2.3888   -2.0281 H   0  0  0  0  0  0  0  0  0 20  0  0
    3.6881   -0.9035   -3.0220 H   0  0  0  0  0  0  0  0  0 21  0  0
    1.5245   -0.9860   -1.6980 H   0  0  0  0  0  0  0  0  0 22  0  0
    0.7782    1.5318   -0.6695 C   0  0  0  0  0  0  0  0  0 23  0  0
    1.4986    2.7086   -0.4967 C   0  0  0  0  0  0  0  0  0 24  0  0
    2.6802    2.7912    0.1702 O   0  0  0  0  0  0  0  0  0 39  0  0
    3.1386    1.9258    0.1830 H   0  0  0  0  0  0  0  0  0 40  0  0
    1.0417    3.9110   -1.0416 C   0  0  0  0  0  0  0  0  0 25  0  0
    1.6140    4.8028   -0.8512 H   0  0  0  0  0  0  0  0  0 38  0  0
   -0.1146    3.9565   -1.7603 C   0  0  0  0  0  0  0  0  0 26  0  0
   -0.4784    4.8833   -2.1760 H   0  0  0  0  0  0  0  0  0 37  0  0
   -0.8592    2.7802   -1.9974 C   0  0  0  0  0  0  0  0  0 27  0  0
   -2.0288    2.8245   -2.7798 C   0  0  0  0  0  0  0  0  0 28  0  0
   -2.3588    3.7719   -3.1842 H   0  0  0  0  0  0  0  0  0 36  0  0
   -2.7503    1.6773   -3.0260 C   0  0  0  0  0  0  0  0  0 29  0  0
   -3.6511    1.7081   -3.6225 H   0  0  0  0  0  0  0  0  0 35  0  0
   -2.3147    0.4686   -2.5026 C   0  0  0  0  0  0  0  0  0 30  0  0
   -2.8736   -0.4299   -2.7078 H   0  0  0  0  0  0  0  0  0 34  0  0
   -1.1690    0.4110   -1.7512 C   0  0  0  0  0  0  0  0  0 31  0  0
   -0.8647   -0.5330   -1.3656 H   0  0  0  0  0  0  0  0  0 33  0  0
   -0.4081    1.5449   -1.4576 C   0  0  0  0  0  0  0  0  0 32  0  0
    2.0483    0.6010    0.7259 H   0  0  0  0  0  0  0  0  0 41  0  0
   -0.4089    0.2052    1.8157 C   0  0  0  0  0  0  0  0  0  7  0  0
   -0.1070    1.2146    2.0574 H   0  0  0  0  0  0  0  0  0 10  0  0
   -1.4110   -0.3921    2.5540 C   0  0  0  0  0  0  0  0  0  8  0  0
   -1.8652    0.1565    3.3623 H   0  0  0  0  0  0  0  0  0  9  0  0
   -3.9602   -0.8491    3.6568 H   0  0  0  0  0  0  0  0  0 44  0  0
   -2.7319   -1.5308    4.7615 H   0  0  0  0  0  0  0  0  0 45  0  0
   -5.0080   -2.3298    5.3633 H   0  0  0  0  0  0  0  0  0 46  0  0
   -5.1978   -2.9861    3.7501 H   0  0  0  0  0  0  0  0  0 47  0  0
   -3.9836   -3.6667    4.8439 H   0  0  0  0  0  0  0  0  0 48  0  0
  1  2  1  0
  2  3  1  0
  3  4  1  0
  4  5  4  0
  5  6  1  0
  5  7  4  0
  7  8  1  0
  7  9  4  0
  9 10  1  0
 10 11  1  0
 11 12  1  0
 12 13  2  0
 12 14  1  0
 14 15  1  0
 15 16  1  0
 15 17  1  0
 15 18  1  0
 14 19  1  0
 14 20  1  0
 11 21  1  0
 10 22  1  0
 22 23  4  0
 23 24  1  0
 24 25  1  0
 23 26  4  0
 26 27  1  0
 26 28  4  0
 28 29  1  0
 28 30  4  0
 30 31  4  0
 31 32  1  0
 31 33  4  0
 33 34  1  0
 33 35  4  0
 35 36  1  0
 35 37  4  0
 37 38  1  0
 37 39  4  0
 10 40  1  1
  9 41  4  0
 41 42  1  0
 41 43  4  0
 43 44  1  0
  2 45  1  0
  2 46  1  0
  1 47  1  0
  1 48  1  0
  1 49  1  0
 43  4  4  0
 39 22  4  0
 39 30  4  0
M  END
>  <sample_id>  (520)
train::CCOc1ccc(C(NC(=O)CC)c2c(O)ccc3ccccc23)cc1__gen0000

>  <partition>  (520)
BAT_EXTERNAL_CONFIRM

>  <method>  (520)
BA_seed193

>  <candidate>  (520)
primary

$$$$
train::CCOc1ccc(C(NC(=O)CC)c2c(O)ccc3ccccc23)cc1__gen0001
     RDKit          3D

 49 51  0  0  0  0  0  0  0  0999 V2000
    6.3352    2.7204   -0.8122 C   0  0  0  0  0  0  0  0  0  0  0  0
    4.9596    2.1809   -1.1429 C   0  0  0  0  0  0  0  0  0  1  0  0
    4.5269    1.4032   -0.0417 O   0  0  0  0  0  0  0  0  0  2  0  0
    3.3161    0.7965   -0.0963 C   0  0  0  0  0  0  0  0  0  3  0  0
    2.9608    0.0347    1.0121 C   0  0  0  0  0  0  0  0  0  4  0  0
    3.6458   -0.0121    1.8361 H   0  0  0  0  0  0  0  0  0 43  0  0
    1.7438   -0.6134    1.0641 C   0  0  0  0  0  0  0  0  0  5  0  0
    1.4741   -1.1969    1.9324 H   0  0  0  0  0  0  0  0  0 42  0  0
    0.8662   -0.5335    0.0010 C   0  0  0  0  0  0  0  0  0  6  0  0
   -0.4678   -1.2979    0.0367 C   0  0  1  0  0  0  0  0  0 11  0  0
   -0.9876   -1.3781    1.3822 N   0  0  0  0  0  0  0  0  0 12  0  0
   -1.4544   -2.5330    1.9007 C   0  0  0  0  0  0  0  0  0 13  0  0
   -1.4288   -3.5823    1.2917 O   0  0  0  0  0  0  0  0  0 14  0  0
   -2.0301   -2.3865    3.2928 C   0  0  0  0  0  0  0  0  0 15  0  0
   -2.3954   -3.7275    3.9094 C   0  0  0  0  0  0  0  0  0 16  0  0
   -3.1344   -4.2266    3.2899 H   0  0  0  0  0  0  0  0  0 17  0  0
   -1.5097   -4.3630    3.9704 H   0  0  0  0  0  0  0  0  0 18  0  0
   -2.8009   -3.5976    4.9103 H   0  0  0  0  0  0  0  0  0 19  0  0
   -1.3013   -1.8673    3.9294 H   0  0  0  0  0  0  0  0  0 20  0  0
   -2.9241   -1.7453    3.2436 H   0  0  0  0  0  0  0  0  0 21  0  0
   -1.0697   -0.5272    1.9073 H   0  0  0  0  0  0  0  0  0 22  0  0
   -1.5018   -0.7540   -0.9152 C   0  0  0  0  0  0  0  0  0 23  0  0
   -2.0383   -1.5736   -1.8906 C   0  0  0  0  0  0  0  0  0 24  0  0
   -1.7603   -2.9148   -2.0099 O   0  0  0  0  0  0  0  0  0 39  0  0
   -1.4256   -3.2365   -1.1556 H   0  0  0  0  0  0  0  0  0 40  0  0
   -2.9191   -1.0658   -2.8479 C   0  0  0  0  0  0  0  0  0 25  0  0
   -3.2786   -1.7453   -3.6035 H   0  0  0  0  0  0  0  0  0 38  0  0
   -3.3220    0.2382   -2.8148 C   0  0  0  0  0  0  0  0  0 26  0  0
   -3.9994    0.6287   -3.5570 H   0  0  0  0  0  0  0  0  0 37  0  0
   -2.8671    1.0881   -1.7897 C   0  0  0  0  0  0  0  0  0 27  0  0
   -3.3072    2.4315   -1.7168 C   0  0  0  0  0  0  0  0  0 28  0  0
   -4.0010    2.7879   -2.4604 H   0  0  0  0  0  0  0  0  0 36  0  0
   -2.8646    3.2634   -0.7136 C   0  0  0  0  0  0  0  0  0 29  0  0
   -3.2151    4.2718   -0.6672 H   0  0  0  0  0  0  0  0  0 35  0  0
   -1.9596    2.7903    0.2331 C   0  0  0  0  0  0  0  0  0 30  0  0
   -1.6083    3.4488    1.0172 H   0  0  0  0  0  0  0  0  0 34  0  0
   -1.5041    1.4894    0.1664 C   0  0  0  0  0  0  0  0  0 31  0  0
   -0.7738    1.1686    0.9030 H   0  0  0  0  0  0  0  0  0 33  0  0
   -1.9455    0.5935   -0.8367 C   0  0  0  0  0  0  0  0  0 32  0  0
   -0.2409   -2.3337   -0.2603 H   0  0  0  0  0  0  0  0  0 41  0  0
    1.2266    0.1930   -1.1229 C   0  0  0  0  0  0  0  0  0  7  0  0
    0.5618    0.2424   -1.9748 H   0  0  0  0  0  0  0  0  0 10  0  0
    2.4386    0.8660   -1.1826 C   0  0  0  0  0  0  0  0  0  8  0  0
    2.6787    1.4268   -2.0693 H   0  0  0  0  0  0  0  0  0  9  0  0
    4.2606    3.0113   -1.3251 H   0  0  0  0  0  0  0  0  0 44  0  0
    5.0219    1.5535   -2.0484 H   0  0  0  0  0  0  0  0  0 45  0  0
    6.7078    3.3270   -1.6332 H   0  0  0  0  0  0  0  0  0 46  0  0
    6.2826    3.3446    0.0780 H   0  0  0  0  0  0  0  0  0 47  0  0
    7.0296    1.9114   -0.6190 H   0  0  0  0  0  0  0  0  0 48  0  0
  1  2  1  0
  2  3  1  0
  3  4  1  0
  4  5  4  0
  5  6  1  0
  5  7  4  0
  7  8  1  0
  7  9  4  0
  9 10  1  0
 10 11  1  0
 11 12  1  0
 12 13  2  0
 12 14  1  0
 14 15  1  0
 15 16  1  0
 15 17  1  0
 15 18  1  0
 14 19  1  0
 14 20  1  0
 11 21  1  0
 10 22  1  0
 22 23  4  0
 23 24  1  0
 24 25  1  0
 23 26  4  0
 26 27  1  0
 26 28  4  0
 28 29  1  0
 28 30  4  0
 30 31  4  0
 31 32  1  0
 31 33  4  0
 33 34  1  0
 33 35  4  0
 35 36  1  0
 35 37  4  0
 37 38  1  0
 37 39  4  0
 10 40  1  6
  9 41  4  0
 41 42  1  0
 41 43  4  0
 43 44  1  0
  2 45  1  0
  2 46  1  0
  1 47  1  0
  1 48  1  0
  1 49  1  0
 43  4  4  0
 39 22  4  0
 39 30  4  0
M  END
>  <sample_id>  (521)
train::CCOc1ccc(C(NC(=O)CC)c2c(O)ccc3ccccc23)cc1__gen0001

>  <partition>  (521)
BAT_EXTERNAL_CONFIRM

>  <method>  (521)
BA_seed193

>  <candidate>  (521)
primary

$$$$
train::CCOc1ccc(C(NC(=O)CC)c2c(O)ccc3ccccc23)cc1__gen0002
     RDKit          3D

 49 51  0  0  0  0  0  0  0  0999 V2000
    0.3653   -0.6523    6.1658 C   0  0  0  0  0  0  0  0  0  0  0  0
   -0.8619    0.1973    5.8673 C   0  0  0  0  0  0  0  0  0  1  0  0
   -0.6267    1.1552    4.8600 O   0  0  0  0  0  0  0  0  0  2  0  0
   -0.5914    0.7828    3.5335 C   0  0  0  0  0  0  0  0  0  3  0  0
   -0.3419    1.8106    2.6388 C   0  0  0  0  0  0  0  0  0  4  0  0
   -0.1803    2.8065    3.0190 H   0  0  0  0  0  0  0  0  0 43  0  0
   -0.3008    1.5589    1.2823 C   0  0  0  0  0  0  0  0  0  5  0  0
   -0.1129    2.3893    0.6121 H   0  0  0  0  0  0  0  0  0 42  0  0
   -0.4779    0.2838    0.7801 C   0  0  0  0  0  0  0  0  0  6  0  0
   -0.4292   -0.0448   -0.6968 C   0  0  1  0  0  0  0  0  0 11  0  0
   -0.8920    1.0547   -1.5136 N   0  0  0  0  0  0  0  0  0 12  0  0
   -2.1252    1.0583   -2.0561 C   0  0  0  0  0  0  0  0  0 13  0  0
   -2.8860    0.1233   -1.9691 O   0  0  0  0  0  0  0  0  0 14  0  0
   -2.5164    2.3416   -2.8011 C   0  0  0  0  0  0  0  0  0 15  0  0
   -1.9174    3.6390   -2.2355 C   0  0  0  0  0  0  0  0  0 16  0  0
   -0.8550    3.7105   -2.4271 H   0  0  0  0  0  0  0  0  0 17  0  0
   -2.1004    3.7050   -1.1715 H   0  0  0  0  0  0  0  0  0 18  0  0
   -2.3994    4.4834   -2.7146 H   0  0  0  0  0  0  0  0  0 19  0  0
   -2.1907    2.2277   -3.8376 H   0  0  0  0  0  0  0  0  0 20  0  0
   -3.5901    2.3907   -2.7855 H   0  0  0  0  0  0  0  0  0 21  0  0
   -0.3088    1.8793   -1.5468 H   0  0  0  0  0  0  0  0  0 22  0  0
    0.9391   -0.4878   -1.2137 C   0  0  0  0  0  0  0  0  0 23  0  0
    2.1373    0.0149   -0.7175 C   0  0  0  0  0  0  0  0  0 24  0  0
    2.2569    0.9819    0.2110 O   0  0  0  0  0  0  0  0  0 39  0  0
    1.3645    1.1983    0.5557 H   0  0  0  0  0  0  0  0  0 40  0  0
    3.3720   -0.4782   -1.1796 C   0  0  0  0  0  0  0  0  0 25  0  0
    4.2690   -0.0567   -0.7565 H   0  0  0  0  0  0  0  0  0 38  0  0
    3.4423   -1.4635   -2.1350 C   0  0  0  0  0  0  0  0  0 26  0  0
    4.3871   -1.8452   -2.4815 H   0  0  0  0  0  0  0  0  0 37  0  0
    2.2472   -1.9857   -2.6726 C   0  0  0  0  0  0  0  0  0 27  0  0
    2.2940   -2.9752   -3.6758 C   0  0  0  0  0  0  0  0  0 28  0  0
    3.2663   -3.3404   -4.0033 H   0  0  0  0  0  0  0  0  0 36  0  0
    1.1391   -3.4585   -4.2297 C   0  0  0  0  0  0  0  0  0 29  0  0
    1.1994   -4.2151   -4.9914 H   0  0  0  0  0  0  0  0  0 35  0  0
   -0.0950   -2.9667   -3.8103 C   0  0  0  0  0  0  0  0  0 30  0  0
   -0.9904   -3.3573   -4.2589 H   0  0  0  0  0  0  0  0  0 34  0  0
   -0.1675   -2.0006   -2.8415 C   0  0  0  0  0  0  0  0  0 31  0  0
   -1.1355   -1.6196   -2.5458 H   0  0  0  0  0  0  0  0  0 33  0  0
    0.9797   -1.4771   -2.2332 C   0  0  0  0  0  0  0  0  0 32  0  0
   -1.1473   -0.8483   -0.8972 H   0  0  0  0  0  0  0  0  0 41  0  0
   -0.7634   -0.7322    1.6894 C   0  0  0  0  0  0  0  0  0  7  0  0
   -0.9430   -1.7393    1.3111 H   0  0  0  0  0  0  0  0  0 10  0  0
   -0.8052   -0.5070    3.0521 C   0  0  0  0  0  0  0  0  0  8  0  0
   -1.0476   -1.3205    3.7102 H   0  0  0  0  0  0  0  0  0  9  0  0
   -1.7181   -0.4320    5.5953 H   0  0  0  0  0  0  0  0  0 44  0  0
   -1.1424    0.7904    6.7357 H   0  0  0  0  0  0  0  0  0 45  0  0
    1.1895   -0.0100    6.4555 H   0  0  0  0  0  0  0  0  0 46  0  0
    0.1520   -1.3194    7.0049 H   0  0  0  0  0  0  0  0  0 47  0  0
    0.6592   -1.2500    5.3193 H   0  0  0  0  0  0  0  0  0 48  0  0
  1  2  1  0
  2  3  1  0
  3  4  1  0
  4  5  4  0
  5  6  1  0
  5  7  4  0
  7  8  1  0
  7  9  4  0
  9 10  1  0
 10 11  1  0
 11 12  1  0
 12 13  2  0
 12 14  1  0
 14 15  1  0
 15 16  1  0
 15 17  1  0
 15 18  1  0
 14 19  1  0
 14 20  1  0
 11 21  1  0
 10 22  1  0
 22 23  4  0
 23 24  1  0
 24 25  1  0
 23 26  4  0
 26 27  1  0
 26 28  4  0
 28 29  1  0
 28 30  4  0
 30 31  4  0
 31 32  1  0
 31 33  4  0
 33 34  1  0
 33 35  4  0
 35 36  1  0
 35 37  4  0
 37 38  1  0
 37 39  4  0
 10 40  1  1
  9 41  4  0
 41 42  1  0
 41 43  4  0
 43 44  1  0
  2 45  1  0
  2 46  1  0
  1 47  1  0
  1 48  1  0
  1 49  1  0
 43  4  4  0
 39 22  4  0
 39 30  4  0
M  END
>  <sample_id>  (522)
train::CCOc1ccc(C(NC(=O)CC)c2c(O)ccc3ccccc23)cc1__gen0002

>  <partition>  (522)
BAT_EXTERNAL_CONFIRM

>  <method>  (522)
BA_seed193

>  <candidate>  (522)
primary

$$$$
train::COc1ccccc1NS(=O)(=O)c1c(C)nc2sccn2c1=O__gen0000
     RDKit          3D

 36 38  0  0  0  0  0  0  0  0999 V2000
   -0.3454    3.2734   -0.3039 C   0  0  0  0  0  0  0  0  0  0  0  0
    0.5642    3.0786   -0.8711 H   0  0  0  0  0  0  0  0  0  1  0  0
   -0.8861    2.0887    0.2211 O   0  0  0  0  0  0  0  0  0  2  0  0
   -1.3055    1.1134   -0.6325 C   0  0  0  0  0  0  0  0  0  3  0  0
   -1.1536    1.1691   -2.0188 C   0  0  0  0  0  0  0  0  0  4  0  0
   -0.6862    2.0212   -2.4932 H   0  0  0  0  0  0  0  0  0 33  0  0
   -1.5700    0.1112   -2.8044 C   0  0  0  0  0  0  0  0  0  5  0  0
   -1.4523    0.1789   -3.8735 H   0  0  0  0  0  0  0  0  0 32  0  0
   -2.1868   -0.9928   -2.2300 C   0  0  0  0  0  0  0  0  0  6  0  0
   -2.5239   -1.8091   -2.8511 H   0  0  0  0  0  0  0  0  0 31  0  0
   -2.3565   -1.0511   -0.8598 C   0  0  0  0  0  0  0  0  0  7  0  0
   -2.8119   -1.9040   -0.3967 H   0  0  0  0  0  0  0  0  0 30  0  0
   -1.9153   -0.0168   -0.0443 C   0  0  0  0  0  0  0  0  0  8  0  0
   -2.0659   -0.0872    1.3361 N   0  0  0  0  0  0  0  0  0  9  0  0
   -1.2980   -1.4023    2.0683 S   0  0  1  0  0  6  0  0  0 10  0  0
   -1.2786   -1.2173    3.4867 O   0  0  0  0  0  0  0  0  0 11  0  0
   -1.9041   -2.5954    1.5769 O   0  0  0  0  0  0  0  0  0 12  0  0
    0.3460   -1.2051    1.3789 C   0  0  0  0  0  0  0  0  0 13  0  0
    0.9901   -2.0664    0.4968 C   0  0  0  0  0  0  0  0  0 14  0  0
    0.5872   -3.4682    0.2454 C   0  0  0  0  0  0  0  0  0 25  0  0
   -0.4443   -3.6260    0.5708 H   0  0  0  0  0  0  0  0  0 26  0  0
    1.2511   -4.1285    0.7974 H   0  0  0  0  0  0  0  0  0 27  0  0
    0.6862   -3.6951   -0.8204 H   0  0  0  0  0  0  0  0  0 28  0  0
    2.1051   -1.6620   -0.1427 N   0  0  0  0  0  0  0  0  0 15  0  0
    2.5425   -0.4766    0.0211 C   0  0  0  0  0  0  0  0  0 16  0  0
    2.0028    0.4207    0.9051 N   0  0  0  0  0  0  0  0  0 17  0  0
    2.6403    1.6437    0.9394 C   0  0  0  0  0  0  0  0  0 18  0  0
    2.2817    2.4052    1.5884 H   0  0  0  0  0  0  0  0  0 22  0  0
    3.6883    1.6890    0.0868 C   0  0  0  0  0  0  0  0  0 19  0  0
    4.3531    2.5132   -0.0845 H   0  0  0  0  0  0  0  0  0 21  0  0
    3.9076    0.2048   -0.7876 S   0  0  0  0  0  0  0  0  0 20  0  0
    0.8449    0.1097    1.6430 C   0  0  0  0  0  0  0  0  0 23  0  0
    0.3814    0.9198    2.4167 O   0  0  0  0  0  0  0  0  0 24  0  0
   -1.8109    0.7689    1.8188 H   0  0  0  0  0  0  0  0  0 29  0  0
   -1.0694    3.7891   -0.9408 H   0  0  0  0  0  0  0  0  0 34  0  0
   -0.1080    3.9055    0.5578 H   0  0  0  0  0  0  0  0  0 35  0  0
  1  2  1  0
  1  3  1  0
  3  4  1  0
  4  5  4  0
  5  6  1  0
  5  7  4  0
  7  8  1  0
  7  9  4  0
  9 10  1  0
  9 11  4  0
 11 12  1  0
 11 13  4  0
 13 14  1  0
 15 14  1  6
 15 16  2  0
 15 17  2  0
 15 18  1  0
 18 19  4  0
 19 20  1  0
 20 21  1  0
 20 22  1  0
 20 23  1  0
 19 24  4  0
 24 25  4  0
 25 26  4  0
 26 27  4  0
 27 28  1  0
 27 29  4  0
 29 30  1  0
 29 31  4  0
 26 32  4  0
 32 33  1  0
 14 34  1  0
  1 35  1  0
  1 36  1  0
 13  4  4  0
 32 18  4  0
 31 25  4  0
M  CHG  2  31   1  33  -1
M  END
>  <sample_id>  (523)
train::COc1ccccc1NS(=O)(=O)c1c(C)nc2sccn2c1=O__gen0000

>  <partition>  (523)
BAT_EXTERNAL_CONFIRM

>  <method>  (523)
BA_seed193

>  <candidate>  (523)
primary

$$$$
train::COc1ccccc1NS(=O)(=O)c1c(C)nc2sccn2c1=O__gen0001
     RDKit          3D

 36 38  0  0  0  0  0  0  0  0999 V2000
   -2.1489    0.0807   -2.0078 C   0  0  0  0  0  0  0  0  0  0  0  0
   -2.6247    0.4391   -1.0906 H   0  0  0  0  0  0  0  0  0  1  0  0
   -0.7935   -0.2279   -1.7952 O   0  0  0  0  0  0  0  0  0  2  0  0
   -0.4672   -1.2456   -0.9489 C   0  0  0  0  0  0  0  0  0  3  0  0
   -1.3794   -1.9404   -0.1609 C   0  0  0  0  0  0  0  0  0  4  0  0
   -2.4407   -1.7263   -0.2159 H   0  0  0  0  0  0  0  0  0 33  0  0
   -0.9382   -2.9059    0.7264 C   0  0  0  0  0  0  0  0  0  5  0  0
   -1.6589   -3.4381    1.3283 H   0  0  0  0  0  0  0  0  0 32  0  0
    0.4093   -3.2059    0.8232 C   0  0  0  0  0  0  0  0  0  6  0  0
    0.7469   -3.9659    1.5098 H   0  0  0  0  0  0  0  0  0 31  0  0
    1.3239   -2.5344    0.0311 C   0  0  0  0  0  0  0  0  0  7  0  0
    2.3861   -2.7385    0.0928 H   0  0  0  0  0  0  0  0  0 30  0  0
    0.8986   -1.5541   -0.8490 C   0  0  0  0  0  0  0  0  0  8  0  0
    1.8339   -0.8463   -1.6078 N   0  0  0  0  0  0  0  0  0  9  0  0
    2.7761    0.2284   -0.7039 S   0  0  1  0  0  6  0  0  0 10  0  0
    3.5791   -0.5063    0.2194 O   0  0  0  0  0  0  0  0  0 11  0  0
    3.4210    1.1101   -1.6325 O   0  0  0  0  0  0  0  0  0 12  0  0
    1.4037    1.0910    0.1542 C   0  0  0  0  0  0  0  0  0 13  0  0
    0.6594    2.0813   -0.4684 C   0  0  0  0  0  0  0  0  0 14  0  0
    0.9870    2.6803   -1.7802 C   0  0  0  0  0  0  0  0  0 25  0  0
    0.8304    3.7593   -1.7265 H   0  0  0  0  0  0  0  0  0 26  0  0
    0.3075    2.2850   -2.5371 H   0  0  0  0  0  0  0  0  0 27  0  0
    2.0152    2.4695   -2.0688 H   0  0  0  0  0  0  0  0  0 28  0  0
   -0.4756    2.5519    0.0843 N   0  0  0  0  0  0  0  0  0 15  0  0
   -0.8783    2.0288    1.1776 C   0  0  0  0  0  0  0  0  0 16  0  0
   -0.2455    1.0169    1.8407 N   0  0  0  0  0  0  0  0  0 17  0  0
   -0.9184    0.5620    2.9671 C   0  0  0  0  0  0  0  0  0 18  0  0
   -0.5048   -0.2494    3.5298 H   0  0  0  0  0  0  0  0  0 22  0  0
   -2.0639    1.2339    3.1871 C   0  0  0  0  0  0  0  0  0 19  0  0
   -2.7700    1.0931    3.9744 H   0  0  0  0  0  0  0  0  0 21  0  0
   -2.3450    2.4868    2.0057 S   0  0  0  0  0  0  0  0  0 20  0  0
    0.9957    0.4965    1.3956 C   0  0  0  0  0  0  0  0  0 23  0  0
    1.5334   -0.3643    2.0651 O   0  0  0  0  0  0  0  0  0 24  0  0
    1.4138   -0.3280   -2.3747 H   0  0  0  0  0  0  0  0  0 29  0  0
   -2.6993   -0.7895   -2.3826 H   0  0  0  0  0  0  0  0  0 34  0  0
   -2.1686    0.8719   -2.7618 H   0  0  0  0  0  0  0  0  0 35  0  0
  1  2  1  0
  1  3  1  0
  3  4  1  0
  4  5  4  0
  5  6  1  0
  5  7  4  0
  7  8  1  0
  7  9  4  0
  9 10  1  0
  9 11  4  0
 11 12  1  0
 11 13  4  0
 13 14  1  0
 15 14  1  6
 15 16  2  0
 15 17  2  0
 15 18  1  0
 18 19  4  0
 19 20  1  0
 20 21  1  0
 20 22  1  0
 20 23  1  0
 19 24  4  0
 24 25  4  0
 25 26  4  0
 26 27  4  0
 27 28  1  0
 27 29  4  0
 29 30  1  0
 29 31  4  0
 26 32  4  0
 32 33  1  0
 14 34  1  0
  1 35  1  0
  1 36  1  0
 13  4  4  0
 32 18  4  0
 31 25  4  0
M  CHG  2  31   1  33  -1
M  END
>  <sample_id>  (524)
train::COc1ccccc1NS(=O)(=O)c1c(C)nc2sccn2c1=O__gen0001

>  <partition>  (524)
BAT_EXTERNAL_CONFIRM

>  <method>  (524)
BA_seed193

>  <candidate>  (524)
primary

$$$$
train::COc1ccccc1NS(=O)(=O)c1c(C)nc2sccn2c1=O__gen0002
     RDKit          3D

 36 38  0  0  0  0  0  0  0  0999 V2000
    0.8217   -3.0045    3.8813 C   0  0  0  0  0  0  0  0  0  0  0  0
    0.4632   -2.6498    4.8533 H   0  0  0  0  0  0  0  0  0  1  0  0
    0.8569   -1.9630    2.9393 O   0  0  0  0  0  0  0  0  0  2  0  0
   -0.3056   -1.3253    2.6195 C   0  0  0  0  0  0  0  0  0  3  0  0
   -1.5517   -1.6172    3.1637 C   0  0  0  0  0  0  0  0  0  4  0  0
   -1.6632   -2.4135    3.8850 H   0  0  0  0  0  0  0  0  0 33  0  0
   -2.6701   -0.8993    2.7737 C   0  0  0  0  0  0  0  0  0  5  0  0
   -3.6383   -1.1299    3.2000 H   0  0  0  0  0  0  0  0  0 32  0  0
   -2.5550    0.1189    1.8413 C   0  0  0  0  0  0  0  0  0  6  0  0
   -3.4234    0.6823    1.5494 H   0  0  0  0  0  0  0  0  0 31  0  0
   -1.3171    0.4256    1.3037 C   0  0  0  0  0  0  0  0  0  7  0  0
   -1.2156    1.2194    0.5773 H   0  0  0  0  0  0  0  0  0 30  0  0
   -0.1823   -0.2890    1.6819 C   0  0  0  0  0  0  0  0  0  8  0  0
    1.0663    0.0162    1.1652 N   0  0  0  0  0  0  0  0  0  9  0  0
    1.4889    1.4071    0.4115 S   0  0  1  0  0  6  0  0  0 10  0  0
    0.8707    2.5107    1.0741 O   0  0  0  0  0  0  0  0  0 11  0  0
    2.9130    1.4127    0.3186 O   0  0  0  0  0  0  0  0  0 12  0  0
    0.8215    1.2492   -1.2463 C   0  0  0  0  0  0  0  0  0 13  0  0
    0.1649    2.2507   -1.9340 C   0  0  0  0  0  0  0  0  0 14  0  0
   -0.2008    3.5734   -1.3679 C   0  0  0  0  0  0  0  0  0 25  0  0
    0.5627    3.9223   -0.6780 H   0  0  0  0  0  0  0  0  0 26  0  0
   -0.3390    4.2748   -2.1854 H   0  0  0  0  0  0  0  0  0 27  0  0
   -1.1329    3.4740   -0.8177 H   0  0  0  0  0  0  0  0  0 28  0  0
   -0.1941    2.0752   -3.2287 N   0  0  0  0  0  0  0  0  0 15  0  0
    0.0922    0.9515   -3.7995 C   0  0  0  0  0  0  0  0  0 16  0  0
    0.7361   -0.0900   -3.2004 N   0  0  0  0  0  0  0  0  0 17  0  0
    0.9151   -1.1874   -4.0232 C   0  0  0  0  0  0  0  0  0 18  0  0
    1.4158   -2.0408   -3.6127 H   0  0  0  0  0  0  0  0  0 22  0  0
    0.4054   -0.9998   -5.2537 C   0  0  0  0  0  0  0  0  0 19  0  0
    0.4180   -1.6945   -6.0710 H   0  0  0  0  0  0  0  0  0 21  0  0
   -0.3061    0.5619   -5.4421 S   0  0  0  0  0  0  0  0  0 20  0  0
    1.1516   -0.0033   -1.8452 C   0  0  0  0  0  0  0  0  0 23  0  0
    1.7248   -0.9337   -1.3310 O   0  0  0  0  0  0  0  0  0 24  0  0
    1.7727   -0.6950    1.2622 H   0  0  0  0  0  0  0  0  0 29  0  0
    0.1872   -3.8350    3.5517 H   0  0  0  0  0  0  0  0  0 34  0  0
    1.8465   -3.3549    3.9841 H   0  0  0  0  0  0  0  0  0 35  0  0
  1  2  1  0
  1  3  1  0
  3  4  1  0
  4  5  4  0
  5  6  1  0
  5  7  4  0
  7  8  1  0
  7  9  4  0
  9 10  1  0
  9 11  4  0
 11 12  1  0
 11 13  4  0
 13 14  1  0
 15 14  1  1
 15 16  2  0
 15 17  2  0
 15 18  1  0
 18 19  4  0
 19 20  1  0
 20 21  1  0
 20 22  1  0
 20 23  1  0
 19 24  4  0
 24 25  4  0
 25 26  4  0
 26 27  4  0
 27 28  1  0
 27 29  4  0
 29 30  1  0
 29 31  4  0
 26 32  4  0
 32 33  1  0
 14 34  1  0
  1 35  1  0
  1 36  1  0
 13  4  4  0
 32 18  4  0
 31 25  4  0
M  CHG  2  31   1  33  -1
M  END
>  <sample_id>  (525)
train::COc1ccccc1NS(=O)(=O)c1c(C)nc2sccn2c1=O__gen0002

>  <partition>  (525)
BAT_EXTERNAL_CONFIRM

>  <method>  (525)
BA_seed193

>  <candidate>  (525)
primary

$$$$
train::O=C(COc1ccc(Br)cc1)NCCCNC(=O)c1ccncc1__gen0000
     RDKit          3D

 42 43  0  0  0  0  0  0  0  0999 V2000
    0.1015   -0.4724    4.0972 O   0  0  0  0  0  0  0  0  0  0  0  0
    0.6933   -0.4573    3.0275 C   0  0  0  0  0  0  0  0  0  1  0  0
    0.6006   -1.4214    2.0759 N   0  0  0  0  0  0  0  0  0  2  0  0
    1.0995   -1.3343    1.2038 H   0  0  0  0  0  0  0  0  0  3  0  0
   -0.3099   -2.5269    2.2559 C   0  0  0  0  0  0  0  0  0  4  0  0
   -1.7562   -2.2111    1.8319 C   0  0  0  0  0  0  0  0  0  5  0  0
   -2.4158   -2.9201    2.3198 H   0  0  0  0  0  0  0  0  0  6  0  0
   -2.0074   -1.2033    2.1978 H   0  0  0  0  0  0  0  0  0  7  0  0
   -1.9642   -2.3161    0.3356 C   0  0  0  0  0  0  0  0  0  8  0  0
   -1.2346   -1.3541   -0.4692 N   0  0  0  0  0  0  0  0  0  9  0  0
   -0.1079   -1.6833   -1.1021 C   0  0  0  0  0  0  0  0  0 10  0  0
    0.4564   -2.7584   -0.9677 O   0  0  0  0  0  0  0  0  0 11  0  0
    0.4330   -0.6442   -2.0311 C   0  0  0  0  0  0  0  0  0 12  0  0
    1.8094   -0.5557   -2.2174 C   0  0  0  0  0  0  0  0  0 13  0  0
    2.4655   -1.1941   -1.6588 H   0  0  0  0  0  0  0  0  0 21  0  0
    2.2853    0.3760   -3.1357 C   0  0  0  0  0  0  0  0  0 14  0  0
    3.3539    0.4696   -3.3166 H   0  0  0  0  0  0  0  0  0 20  0  0
    1.5009    1.1378   -3.8723 N   0  0  0  0  0  0  0  0  0 15  0  0
    0.1852    1.0401   -3.6983 C   0  0  0  0  0  0  0  0  0 16  0  0
   -0.4134    1.6939   -4.3142 H   0  0  0  0  0  0  0  0  0 19  0  0
   -0.4040    0.1654   -2.7898 C   0  0  0  0  0  0  0  0  0 17  0  0
   -1.4714    0.1279   -2.6969 H   0  0  0  0  0  0  0  0  0 18  0  0
   -1.5767   -0.4130   -0.4864 H   0  0  0  0  0  0  0  0  0 22  0  0
   -3.0361   -2.1975    0.1020 H   0  0  0  0  0  0  0  0  0 23  0  0
   -1.6521   -3.3070   -0.0009 H   0  0  0  0  0  0  0  0  0 24  0  0
   -0.2934   -2.7768    3.3225 H   0  0  0  0  0  0  0  0  0 25  0  0
    0.0736   -3.3831    1.6952 H   0  0  0  0  0  0  0  0  0 26  0  0
    1.7063    0.6421    2.6855 C   0  0  0  0  0  0  0  0  0 27  0  0
    1.8350    0.9708    1.3131 O   0  0  0  0  0  0  0  0  0 28  0  0
    0.8280    1.6256    0.6998 C   0  0  0  0  0  0  0  0  0 29  0  0
   -0.4884    1.6532    1.1572 C   0  0  0  0  0  0  0  0  0 30  0  0
   -0.7650    1.1927    2.1095 H   0  0  0  0  0  0  0  0  0 39  0  0
   -1.4651    2.2963    0.4370 C   0  0  0  0  0  0  0  0  0 31  0  0
   -2.4842    2.3128    0.7913 H   0  0  0  0  0  0  0  0  0 38  0  0
   -1.1307    2.9216   -0.7575 C   0  0  0  0  0  0  0  0  0 32  0  0
   -2.4966    3.7647   -1.7638 Br  0  0  0  0  0  0  0  0  0 37  0  0
    0.1748    2.9276   -1.2127 C   0  0  0  0  0  0  0  0  0 33  0  0
    0.4197    3.4436   -2.1194 H   0  0  0  0  0  0  0  0  0 36  0  0
    1.1462    2.2665   -0.4960 C   0  0  0  0  0  0  0  0  0 34  0  0
    2.1656    2.2576   -0.8261 H   0  0  0  0  0  0  0  0  0 35  0  0
    1.4439    1.5392    3.2680 H   0  0  0  0  0  0  0  0  0 40  0  0
    2.6955    0.3053    3.0063 H   0  0  0  0  0  0  0  0  0 41  0  0
  1  2  2  0
  2  3  1  0
  3  4  1  0
  3  5  1  0
  5  6  1  0
  6  7  1  0
  6  8  1  0
  6  9  1  0
  9 10  1  0
 10 11  1  0
 11 12  2  0
 11 13  1  0
 13 14  4  0
 14 15  1  0
 14 16  4  0
 16 17  1  0
 16 18  4  0
 18 19  4  0
 19 20  1  0
 19 21  4  0
 21 22  1  0
 10 23  1  0
  9 24  1  0
  9 25  1  0
  5 26  1  0
  5 27  1  0
  2 28  1  0
 28 29  1  0
 29 30  1  0
 30 31  4  0
 31 32  1  0
 31 33  4  0
 33 34  1  0
 33 35  4  0
 35 36  1  0
 35 37  4  0
 37 38  1  0
 37 39  4  0
 39 40  1  0
 28 41  1  0
 28 42  1  0
 21 13  4  0
 39 30  4  0
M  END
>  <sample_id>  (526)
train::O=C(COc1ccc(Br)cc1)NCCCNC(=O)c1ccncc1__gen0000

>  <partition>  (526)
BAT_EXTERNAL_CONFIRM

>  <method>  (526)
BA_seed193

>  <candidate>  (526)
primary

$$$$
train::O=C(COc1ccc(Br)cc1)NCCCNC(=O)c1ccncc1__gen0001
     RDKit          3D

 42 43  0  0  0  0  0  0  0  0999 V2000
   -1.9268   -0.1652    1.1338 O   0  0  0  0  0  0  0  0  0  0  0  0
   -2.1030   -0.3327   -0.0667 C   0  0  0  0  0  0  0  0  0  1  0  0
   -2.9378    0.4186   -0.7858 N   0  0  0  0  0  0  0  0  0  2  0  0
   -3.0508    0.2371   -1.7684 H   0  0  0  0  0  0  0  0  0  3  0  0
   -3.6276    1.5531   -0.1869 C   0  0  0  0  0  0  0  0  0  4  0  0
   -3.2655    2.8856   -0.8526 C   0  0  0  0  0  0  0  0  0  5  0  0
   -3.8938    3.0428   -1.7326 H   0  0  0  0  0  0  0  0  0  6  0  0
   -3.5055    3.6781   -0.1459 H   0  0  0  0  0  0  0  0  0  7  0  0
   -1.8128    3.0023   -1.2996 C   0  0  0  0  0  0  0  0  0  8  0  0
   -0.8473    2.5151   -0.3162 N   0  0  0  0  0  0  0  0  0  9  0  0
    0.0749    1.5895   -0.6642 C   0  0  0  0  0  0  0  0  0 10  0  0
    0.1516    1.1532   -1.8081 O   0  0  0  0  0  0  0  0  0 11  0  0
    1.0038    1.1242    0.4074 C   0  0  0  0  0  0  0  0  0 12  0  0
    2.2614    0.6726    0.0127 C   0  0  0  0  0  0  0  0  0 13  0  0
    2.5439    0.7080   -1.0275 H   0  0  0  0  0  0  0  0  0 21  0  0
    3.1194    0.1717    0.9709 C   0  0  0  0  0  0  0  0  0 14  0  0
    4.1044   -0.1865    0.7104 H   0  0  0  0  0  0  0  0  0 20  0  0
    2.7920    0.0867    2.2535 N   0  0  0  0  0  0  0  0  0 15  0  0
    1.5978    0.4943    2.6253 C   0  0  0  0  0  0  0  0  0 16  0  0
    1.3707    0.3934    3.6804 H   0  0  0  0  0  0  0  0  0 19  0  0
    0.6612    1.0329    1.7576 C   0  0  0  0  0  0  0  0  0 17  0  0
   -0.3084    1.3331    2.1123 H   0  0  0  0  0  0  0  0  0 18  0  0
   -0.9693    2.7808    0.6400 H   0  0  0  0  0  0  0  0  0 22  0  0
   -1.6382    2.4235   -2.2130 H   0  0  0  0  0  0  0  0  0 23  0  0
   -1.5947    4.0540   -1.5201 H   0  0  0  0  0  0  0  0  0 24  0  0
   -4.7148    1.4114   -0.2446 H   0  0  0  0  0  0  0  0  0 25  0  0
   -3.3267    1.5591    0.8653 H   0  0  0  0  0  0  0  0  0 26  0  0
   -1.3621   -1.4171   -0.8586 C   0  0  0  0  0  0  0  0  0 27  0  0
   -0.7535   -2.2783    0.0819 O   0  0  0  0  0  0  0  0  0 28  0  0
    0.5795   -2.4913    0.0468 C   0  0  0  0  0  0  0  0  0 29  0  0
    1.1730   -2.9197    1.2284 C   0  0  0  0  0  0  0  0  0 30  0  0
    0.5575   -3.0174    2.1055 H   0  0  0  0  0  0  0  0  0 39  0  0
    2.5227   -3.1767    1.2940 C   0  0  0  0  0  0  0  0  0 31  0  0
    2.9774   -3.4994    2.2203 H   0  0  0  0  0  0  0  0  0 38  0  0
    3.2968   -3.0299    0.1544 C   0  0  0  0  0  0  0  0  0 32  0  0
    5.1705   -3.3656    0.2249 Br  0  0  0  0  0  0  0  0  0 37  0  0
    2.7232   -2.6254   -1.0388 C   0  0  0  0  0  0  0  0  0 33  0  0
    3.3279   -2.5003   -1.9207 H   0  0  0  0  0  0  0  0  0 36  0  0
    1.3738   -2.3520   -1.0942 C   0  0  0  0  0  0  0  0  0 34  0  0
    0.9364   -2.0362   -2.0290 H   0  0  0  0  0  0  0  0  0 35  0  0
   -2.0621   -2.0079   -1.4578 H   0  0  0  0  0  0  0  0  0 40  0  0
   -0.6193   -0.9194   -1.4942 H   0  0  0  0  0  0  0  0  0 41  0  0
  1  2  2  0
  2  3  1  0
  3  4  1  0
  3  5  1  0
  5  6  1  0
  6  7  1  0
  6  8  1  0
  6  9  1  0
  9 10  1  0
 10 11  1  0
 11 12  2  0
 11 13  1  0
 13 14  4  0
 14 15  1  0
 14 16  4  0
 16 17  1  0
 16 18  4  0
 18 19  4  0
 19 20  1  0
 19 21  4  0
 21 22  1  0
 10 23  1  0
  9 24  1  0
  9 25  1  0
  5 26  1  0
  5 27  1  0
  2 28  1  0
 28 29  1  0
 29 30  1  0
 30 31  4  0
 31 32  1  0
 31 33  4  0
 33 34  1  0
 33 35  4  0
 35 36  1  0
 35 37  4  0
 37 38  1  0
 37 39  4  0
 39 40  1  0
 28 41  1  0
 28 42  1  0
 21 13  4  0
 39 30  4  0
M  END
>  <sample_id>  (527)
train::O=C(COc1ccc(Br)cc1)NCCCNC(=O)c1ccncc1__gen0001

>  <partition>  (527)
BAT_EXTERNAL_CONFIRM

>  <method>  (527)
BA_seed193

>  <candidate>  (527)
primary

$$$$
train::O=C(COc1ccc(Br)cc1)NCCCNC(=O)c1ccncc1__gen0002
     RDKit          3D

 42 43  0  0  0  0  0  0  0  0999 V2000
   -1.6505    1.0480    0.9512 O   0  0  0  0  0  0  0  0  0  0  0  0
   -1.5354   -0.1652    0.9474 C   0  0  0  0  0  0  0  0  0  1  0  0
   -1.8824   -0.9441   -0.0832 N   0  0  0  0  0  0  0  0  0  2  0  0
   -1.7766   -1.9372    0.0185 H   0  0  0  0  0  0  0  0  0  3  0  0
   -2.3698   -0.4179   -1.3342 C   0  0  0  0  0  0  0  0  0  4  0  0
   -1.3727   -0.6607   -2.4683 C   0  0  0  0  0  0  0  0  0  5  0  0
   -1.7518   -0.2029   -3.3899 H   0  0  0  0  0  0  0  0  0  6  0  0
   -1.3023   -1.7385   -2.6718 H   0  0  0  0  0  0  0  0  0  7  0  0
    0.0227   -0.1444   -2.1660 C   0  0  0  0  0  0  0  0  0  8  0  0
    0.0052    1.2323   -1.6970 N   0  0  0  0  0  0  0  0  0  9  0  0
    0.5770    1.6201   -0.5483 C   0  0  0  0  0  0  0  0  0 10  0  0
    1.2542    0.8440    0.1373 O   0  0  0  0  0  0  0  0  0 11  0  0
    0.3976    3.0413   -0.1765 C   0  0  0  0  0  0  0  0  0 12  0  0
    0.2015    4.0497   -1.1036 C   0  0  0  0  0  0  0  0  0 13  0  0
    0.2089    3.8692   -2.1695 H   0  0  0  0  0  0  0  0  0 21  0  0
    0.0489    5.3541   -0.6414 C   0  0  0  0  0  0  0  0  0 14  0  0
   -0.0904    6.1823   -1.3244 H   0  0  0  0  0  0  0  0  0 20  0  0
    0.0555    5.6760    0.6425 N   0  0  0  0  0  0  0  0  0 15  0  0
    0.2339    4.7088    1.5253 C   0  0  0  0  0  0  0  0  0 16  0  0
    0.2359    5.0258    2.5543 H   0  0  0  0  0  0  0  0  0 19  0  0
    0.4076    3.3831    1.1772 C   0  0  0  0  0  0  0  0  0 17  0  0
    0.5508    2.6170    1.9054 H   0  0  0  0  0  0  0  0  0 18  0  0
   -0.6073    1.8787   -2.1749 H   0  0  0  0  0  0  0  0  0 22  0  0
    0.5009   -0.7220   -1.3867 H   0  0  0  0  0  0  0  0  0 23  0  0
    0.6451   -0.2119   -3.0759 H   0  0  0  0  0  0  0  0  0 24  0  0
   -2.5257    0.6498   -1.1811 H   0  0  0  0  0  0  0  0  0 25  0  0
   -3.3261   -0.8876   -1.5815 H   0  0  0  0  0  0  0  0  0 26  0  0
   -1.0374   -0.9092    2.1864 C   0  0  0  0  0  0  0  0  0 27  0  0
   -0.8533   -2.2955    1.9933 O   0  0  0  0  0  0  0  0  0 28  0  0
    0.3058   -2.7800    1.4942 C   0  0  0  0  0  0  0  0  0 29  0  0
    0.3879   -4.1728    1.4043 C   0  0  0  0  0  0  0  0  0 30  0  0
   -0.4458   -4.7770    1.7470 H   0  0  0  0  0  0  0  0  0 39  0  0
    1.5243   -4.7734    0.9133 C   0  0  0  0  0  0  0  0  0 31  0  0
    1.5814   -5.8525    0.8390 H   0  0  0  0  0  0  0  0  0 38  0  0
    2.5784   -3.9830    0.4793 C   0  0  0  0  0  0  0  0  0 32  0  0
    4.1433   -4.8365   -0.2122 Br  0  0  0  0  0  0  0  0  0 37  0  0
    2.5191   -2.6016    0.5717 C   0  0  0  0  0  0  0  0  0 33  0  0
    3.3555   -2.0074    0.2354 H   0  0  0  0  0  0  0  0  0 36  0  0
    1.3817   -2.0114    1.0705 C   0  0  0  0  0  0  0  0  0 34  0  0
    1.3419   -0.9372    1.1114 H   0  0  0  0  0  0  0  0  0 35  0  0
   -1.8046   -0.8094    2.9587 H   0  0  0  0  0  0  0  0  0 40  0  0
   -0.1327   -0.4008    2.5232 H   0  0  0  0  0  0  0  0  0 41  0  0
  1  2  2  0
  2  3  1  0
  3  4  1  0
  3  5  1  0
  5  6  1  0
  6  7  1  0
  6  8  1  0
  6  9  1  0
  9 10  1  0
 10 11  1  0
 11 12  2  0
 11 13  1  0
 13 14  4  0
 14 15  1  0
 14 16  4  0
 16 17  1  0
 16 18  4  0
 18 19  4  0
 19 20  1  0
 19 21  4  0
 21 22  1  0
 10 23  1  0
  9 24  1  0
  9 25  1  0
  5 26  1  0
  5 27  1  0
  2 28  1  0
 28 29  1  0
 29 30  1  0
 30 31  4  0
 31 32  1  0
 31 33  4  0
 33 34  1  0
 33 35  4  0
 35 36  1  0
 35 37  4  0
 37 38  1  0
 37 39  4  0
 39 40  1  0
 28 41  1  0
 28 42  1  0
 21 13  4  0
 39 30  4  0
M  END
>  <sample_id>  (528)
train::O=C(COc1ccc(Br)cc1)NCCCNC(=O)c1ccncc1__gen0002

>  <partition>  (528)
BAT_EXTERNAL_CONFIRM

>  <method>  (528)
BA_seed193

>  <candidate>  (528)
primary

$$$$
train::CCn1cc(C(=O)Nn2cnnc2)c(=O)c2ccc(C)nc21__gen0000
     RDKit          3D

 36 38  0  0  0  0  0  0  0  0999 V2000
   -1.2462   -1.4282    3.3034 C   0  0  0  0  0  0  0  0  0  0  0  0
   -0.3815   -2.0782    3.2360 H   0  0  0  0  0  0  0  0  0  1  0  0
   -2.0279   -1.7877    2.6228 H   0  0  0  0  0  0  0  0  0  2  0  0
   -0.8812    0.0124    2.9733 C   0  0  0  0  0  0  0  0  0  3  0  0
   -0.3758    0.1089    1.6137 N   0  0  0  0  0  0  0  0  0  4  0  0
   -1.2200    0.3247    0.5880 C   0  0  0  0  0  0  0  0  0  5  0  0
   -2.2647    0.4837    0.8191 H   0  0  0  0  0  0  0  0  0 32  0  0
   -0.8211    0.3827   -0.7169 C   0  0  0  0  0  0  0  0  0  6  0  0
   -1.9068    0.6353   -1.7057 C   0  0  0  0  0  0  0  0  0 21  0  0
   -3.0813    0.7719   -1.3782 O   0  0  0  0  0  0  0  0  0 22  0  0
   -1.4712    0.7080   -2.9752 N   0  0  0  0  0  0  0  0  0 23  0  0
   -2.2610    0.8987   -4.0771 N   0  0  0  0  0  0  0  0  0 24  0  0
   -1.8275    0.8863   -5.3846 C   0  0  0  0  0  0  0  0  0 25  0  0
   -0.8055    0.7164   -5.6581 H   0  0  0  0  0  0  0  0  0 30  0  0
   -2.8116    1.1089   -6.1702 N   0  0  0  0  0  0  0  0  0 26  0  0
   -3.9224    1.2677   -5.4330 N   0  0  0  0  0  0  0  0  0 27  0  0
   -3.5918    1.1526   -4.1807 C   0  0  0  0  0  0  0  0  0 28  0  0
   -4.2598    1.2339   -3.3521 H   0  0  0  0  0  0  0  0  0 29  0  0
   -0.4681    0.5289   -3.1373 H   0  0  0  0  0  0  0  0  0 31  0  0
    0.5589    0.1931   -1.0954 C   0  0  0  0  0  0  0  0  0  7  0  0
    0.9834    0.2160   -2.2474 O   0  0  0  0  0  0  0  0  0  8  0  0
    1.4437   -0.0536    0.0527 C   0  0  0  0  0  0  0  0  0  9  0  0
    2.8183   -0.2549   -0.1339 C   0  0  0  0  0  0  0  0  0 10  0  0
    3.1996   -0.2223   -1.1456 H   0  0  0  0  0  0  0  0  0 20  0  0
    3.6117   -0.4886    0.9628 C   0  0  0  0  0  0  0  0  0 11  0  0
    4.6722   -0.6450    0.8552 H   0  0  0  0  0  0  0  0  0 19  0  0
    3.0316   -0.5176    2.2420 C   0  0  0  0  0  0  0  0  0 12  0  0
    3.8632   -0.7688    3.4482 C   0  0  0  0  0  0  0  0  0 15  0  0
    3.2242   -0.7766    4.3372 H   0  0  0  0  0  0  0  0  0 16  0  0
    4.3713   -1.7330    3.3687 H   0  0  0  0  0  0  0  0  0 17  0  0
    4.6115    0.0107    3.5500 H   0  0  0  0  0  0  0  0  0 18  0  0
    1.7451   -0.3176    2.4168 N   0  0  0  0  0  0  0  0  0 13  0  0
    0.9591   -0.1047    1.3718 C   0  0  0  0  0  0  0  0  0 14  0  0
   -1.7470    0.6633    3.0634 H   0  0  0  0  0  0  0  0  0 33  0  0
   -0.0899    0.3503    3.6440 H   0  0  0  0  0  0  0  0  0 34  0  0
   -1.6316   -1.4779    4.3221 H   0  0  0  0  0  0  0  0  0 35  0  0
  1  2  1  0
  1  3  1  0
  1  4  1  0
  4  5  1  0
  5  6  4  0
  6  7  1  0
  6  8  4  0
  8  9  1  0
  9 10  2  0
  9 11  1  0
 11 12  1  0
 12 13  4  0
 13 14  1  0
 13 15  4  0
 15 16  4  0
 16 17  4  0
 17 18  1  0
 11 19  1  0
  8 20  4  0
 20 21  2  0
 20 22  4  0
 22 23  4  0
 23 24  1  0
 23 25  4  0
 25 26  1  0
 25 27  4  0
 27 28  1  0
 28 29  1  0
 28 30  1  0
 28 31  1  0
 27 32  4  0
 32 33  4  0
  4 34  1  0
  4 35  1  0
  1 36  1  0
 33  5  4  0
 17 12  4  0
 33 22  4  0
M  END
>  <sample_id>  (529)
train::CCn1cc(C(=O)Nn2cnnc2)c(=O)c2ccc(C)nc21__gen0000

>  <partition>  (529)
BAT_EXTERNAL_CONFIRM

>  <method>  (529)
BA_seed193

>  <candidate>  (529)
primary

$$$$
train::CCn1cc(C(=O)Nn2cnnc2)c(=O)c2ccc(C)nc21__gen0001
     RDKit          3D

 36 38  0  0  0  0  0  0  0  0999 V2000
   -0.0917    0.1406   -3.8139 C   0  0  0  0  0  0  0  0  0  0  0  0
   -1.0322   -0.3972   -3.7049 H   0  0  0  0  0  0  0  0  0  1  0  0
   -0.2322    1.1902   -3.5659 H   0  0  0  0  0  0  0  0  0  2  0  0
    0.9709   -0.4772   -2.8969 C   0  0  0  0  0  0  0  0  0  3  0  0
    0.5731   -0.3772   -1.5010 N   0  0  0  0  0  0  0  0  0  4  0  0
    0.9446    0.6697   -0.7689 C   0  0  0  0  0  0  0  0  0  5  0  0
    1.6086    1.4003   -1.2202 H   0  0  0  0  0  0  0  0  0 32  0  0
    0.5834    0.8653    0.5355 C   0  0  0  0  0  0  0  0  0  6  0  0
    1.1210    2.0841    1.1970 C   0  0  0  0  0  0  0  0  0 21  0  0
    1.8638    2.8584    0.6144 O   0  0  0  0  0  0  0  0  0 22  0  0
    0.7037    2.2214    2.4670 N   0  0  0  0  0  0  0  0  0 23  0  0
    1.0737    3.2429    3.3134 N   0  0  0  0  0  0  0  0  0 24  0  0
    0.4095    3.6222    4.4493 C   0  0  0  0  0  0  0  0  0 25  0  0
   -0.4509    3.1171    4.8334 H   0  0  0  0  0  0  0  0  0 30  0  0
    0.9999    4.6365    4.9833 N   0  0  0  0  0  0  0  0  0 26  0  0
    2.0500    4.9743    4.2097 N   0  0  0  0  0  0  0  0  0 27  0  0
    2.0984    4.1570    3.2134 C   0  0  0  0  0  0  0  0  0 28  0  0
    2.8065    4.1625    2.4120 H   0  0  0  0  0  0  0  0  0 29  0  0
    0.0789    1.5004    2.8512 H   0  0  0  0  0  0  0  0  0 31  0  0
   -0.2977   -0.0810    1.2091 C   0  0  0  0  0  0  0  0  0  7  0  0
   -0.6765    0.0273    2.3757 O   0  0  0  0  0  0  0  0  0  8  0  0
   -0.7007   -1.2086    0.3654 C   0  0  0  0  0  0  0  0  0  9  0  0
   -1.5464   -2.2097    0.8508 C   0  0  0  0  0  0  0  0  0 10  0  0
   -1.8828   -2.1432    1.8685 H   0  0  0  0  0  0  0  0  0 20  0  0
   -1.9086   -3.2436    0.0136 C   0  0  0  0  0  0  0  0  0 11  0  0
   -2.5542   -4.0336    0.3755 H   0  0  0  0  0  0  0  0  0 19  0  0
   -1.4245   -3.2842   -1.2970 C   0  0  0  0  0  0  0  0  0 12  0  0
   -1.7860   -4.3760   -2.2273 C   0  0  0  0  0  0  0  0  0 15  0  0
   -2.8670   -4.4268   -2.3439 H   0  0  0  0  0  0  0  0  0 16  0  0
   -1.3276   -4.1988   -3.1968 H   0  0  0  0  0  0  0  0  0 17  0  0
   -1.4468   -5.3312   -1.8399 H   0  0  0  0  0  0  0  0  0 18  0  0
   -0.6297   -2.3309   -1.7708 N   0  0  0  0  0  0  0  0  0 13  0  0
   -0.2692   -1.3199   -0.9711 C   0  0  0  0  0  0  0  0  0 14  0  0
    1.0885   -1.5367   -3.1440 H   0  0  0  0  0  0  0  0  0 33  0  0
    1.9291    0.0323   -3.0249 H   0  0  0  0  0  0  0  0  0 34  0  0
    0.2211    0.0736   -4.8510 H   0  0  0  0  0  0  0  0  0 35  0  0
  1  2  1  0
  1  3  1  0
  1  4  1  0
  4  5  1  0
  5  6  4  0
  6  7  1  0
  6  8  4  0
  8  9  1  0
  9 10  2  0
  9 11  1  0
 11 12  1  0
 12 13  4  0
 13 14  1  0
 13 15  4  0
 15 16  4  0
 16 17  4  0
 17 18  1  0
 11 19  1  0
  8 20  4  0
 20 21  2  0
 20 22  4  0
 22 23  4  0
 23 24  1  0
 23 25  4  0
 25 26  1  0
 25 27  4  0
 27 28  1  0
 28 29  1  0
 28 30  1  0
 28 31  1  0
 27 32  4  0
 32 33  4  0
  4 34  1  0
  4 35  1  0
  1 36  1  0
 33  5  4  0
 17 12  4  0
 33 22  4  0
M  END
>  <sample_id>  (530)
train::CCn1cc(C(=O)Nn2cnnc2)c(=O)c2ccc(C)nc21__gen0001

>  <partition>  (530)
BAT_EXTERNAL_CONFIRM

>  <method>  (530)
BA_seed193

>  <candidate>  (530)
primary

$$$$
train::CCn1cc(C(=O)Nn2cnnc2)c(=O)c2ccc(C)nc21__gen0002
     RDKit          3D

 36 38  0  0  0  0  0  0  0  0999 V2000
    0.6440    3.5043    1.2697 C   0  0  0  0  0  0  0  0  0  0  0  0
    1.0548    4.5069    1.3542 H   0  0  0  0  0  0  0  0  0  1  0  0
   -0.4422    3.5705    1.3548 H   0  0  0  0  0  0  0  0  0  2  0  0
    1.0348    2.8879   -0.0547 C   0  0  0  0  0  0  0  0  0  3  0  0
    0.5201    1.5343   -0.1709 N   0  0  0  0  0  0  0  0  0  4  0  0
    1.2496    0.4807    0.2217 C   0  0  0  0  0  0  0  0  0  5  0  0
    2.2434    0.6903    0.5740 H   0  0  0  0  0  0  0  0  0 32  0  0
    0.8079   -0.8183    0.1932 C   0  0  0  0  0  0  0  0  0  6  0  0
    1.7586   -1.8387    0.6463 C   0  0  0  0  0  0  0  0  0 21  0  0
    2.8756   -1.5611    1.0680 O   0  0  0  0  0  0  0  0  0 22  0  0
    1.2982   -3.1196    0.5625 N   0  0  0  0  0  0  0  0  0 23  0  0
    2.0307   -4.1739    1.0021 N   0  0  0  0  0  0  0  0  0 24  0  0
    3.2936   -4.5573    0.5923 C   0  0  0  0  0  0  0  0  0 25  0  0
    3.8261   -4.0749   -0.1955 H   0  0  0  0  0  0  0  0  0 30  0  0
    3.6768   -5.5896    1.2627 N   0  0  0  0  0  0  0  0  0 26  0  0
    2.7124   -5.9024    2.1400 N   0  0  0  0  0  0  0  0  0 27  0  0
    1.7318   -5.0868    1.9859 C   0  0  0  0  0  0  0  0  0 28  0  0
    0.8163   -5.0669    2.5289 H   0  0  0  0  0  0  0  0  0 29  0  0
    0.3359   -3.2593    0.2345 H   0  0  0  0  0  0  0  0  0 31  0  0
   -0.5337   -1.1400   -0.2840 C   0  0  0  0  0  0  0  0  0  7  0  0
   -0.9991   -2.2687   -0.3656 O   0  0  0  0  0  0  0  0  0  8  0  0
   -1.3071    0.0394   -0.6904 C   0  0  0  0  0  0  0  0  0  9  0  0
   -2.6148   -0.0903   -1.1583 C   0  0  0  0  0  0  0  0  0 10  0  0
   -3.0397   -1.0676   -1.2224 H   0  0  0  0  0  0  0  0  0 20  0  0
   -3.3167    1.0394   -1.5155 C   0  0  0  0  0  0  0  0  0 11  0  0
   -4.3262    0.9806   -1.8869 H   0  0  0  0  0  0  0  0  0 19  0  0
   -2.6866    2.2882   -1.4150 C   0  0  0  0  0  0  0  0  0 12  0  0
   -3.4090    3.5470   -1.8055 C   0  0  0  0  0  0  0  0  0 15  0  0
   -3.7036    3.5032   -2.8553 H   0  0  0  0  0  0  0  0  0 16  0  0
   -4.3066    3.6469   -1.2017 H   0  0  0  0  0  0  0  0  0 17  0  0
   -2.7623    4.4039   -1.6451 H   0  0  0  0  0  0  0  0  0 18  0  0
   -1.4593    2.4333   -0.9734 N   0  0  0  0  0  0  0  0  0 13  0  0
   -0.7762    1.3381   -0.6192 C   0  0  0  0  0  0  0  0  0 14  0  0
    0.6224    3.4754   -0.8749 H   0  0  0  0  0  0  0  0  0 33  0  0
    2.1234    2.8393   -0.1561 H   0  0  0  0  0  0  0  0  0 34  0  0
    1.0266    2.9058    2.0996 H   0  0  0  0  0  0  0  0  0 35  0  0
  1  2  1  0
  1  3  1  0
  1  4  1  0
  4  5  1  0
  5  6  4  0
  6  7  1  0
  6  8  4  0
  8  9  1  0
  9 10  2  0
  9 11  1  0
 11 12  1  0
 12 13  4  0
 13 14  1  0
 13 15  4  0
 15 16  4  0
 16 17  4  0
 17 18  1  0
 11 19  1  0
  8 20  4  0
 20 21  2  0
 20 22  4  0
 22 23  4  0
 23 24  1  0
 23 25  4  0
 25 26  1  0
 25 27  4  0
 27 28  1  0
 28 29  1  0
 28 30  1  0
 28 31  1  0
 27 32  4  0
 32 33  4  0
  4 34  1  0
  4 35  1  0
  1 36  1  0
 33  5  4  0
 17 12  4  0
 33 22  4  0
M  END
>  <sample_id>  (531)
train::CCn1cc(C(=O)Nn2cnnc2)c(=O)c2ccc(C)nc21__gen0002

>  <partition>  (531)
BAT_EXTERNAL_CONFIRM

>  <method>  (531)
BA_seed193

>  <candidate>  (531)
primary

$$$$
train::CCN(CC)S(=O)(=O)c1cccc(-c2cn3cccnc3n2)c1__gen0000
     RDKit          3D

 41 43  0  0  0  0  0  0  0  0999 V2000
    2.4071    1.1727    1.6182 C   0  0  0  0  0  0  0  0  0  0  0  0
    2.3468    1.0106    0.5406 H   0  0  0  0  0  0  0  0  0  1  0  0
    3.4618    1.1767    1.8990 H   0  0  0  0  0  0  0  0  0  2  0  0
    1.8938    0.3747    2.1516 H   0  0  0  0  0  0  0  0  0  3  0  0
    1.7629    2.5126    1.9852 C   0  0  0  0  0  0  0  0  0  4  0  0
    0.4237    2.5933    1.4649 N   0  0  0  0  0  0  0  0  0  5  0  0
   -0.7894    1.7887    2.2852 S   0  0  2  0  0  6  0  0  0  6  0  0
   -1.7811    2.7307    2.7535 O   0  0  0  0  0  0  0  0  0  7  0  0
   -0.2032    0.8951    3.2266 O   0  0  0  0  0  0  0  0  0  8  0  0
   -1.5155    0.8467    0.9466 C   0  0  0  0  0  0  0  0  0  9  0  0
   -0.8201   -0.2289    0.4404 C   0  0  0  0  0  0  0  0  0 10  0  0
    0.1398   -0.5180    0.8699 H   0  0  0  0  0  0  0  0  0 31  0  0
   -1.3285   -0.9422   -0.6372 C   0  0  0  0  0  0  0  0  0 11  0  0
   -0.5768   -2.0811   -1.1621 C   0  0  0  0  0  0  0  0  0 18  0  0
   -0.9743   -3.0454   -2.0780 C   0  0  0  0  0  0  0  0  0 19  0  0
   -1.9096   -3.2037   -2.5861 H   0  0  0  0  0  0  0  0  0 30  0  0
    0.0780   -3.8537   -2.2311 N   0  0  0  0  0  0  0  0  0 20  0  0
    0.2968   -4.9673   -2.9970 C   0  0  0  0  0  0  0  0  0 21  0  0
   -0.5221   -5.3094   -3.5997 H   0  0  0  0  0  0  0  0  0 29  0  0
    1.5228   -5.5612   -2.9198 C   0  0  0  0  0  0  0  0  0 22  0  0
    1.7267   -6.4508   -3.4925 H   0  0  0  0  0  0  0  0  0 28  0  0
    2.5036   -4.9973   -2.0866 C   0  0  0  0  0  0  0  0  0 23  0  0
    3.4897   -5.4306   -2.0187 H   0  0  0  0  0  0  0  0  0 27  0  0
    2.3128   -3.9220   -1.3615 N   0  0  0  0  0  0  0  0  0 24  0  0
    1.1280   -3.3551   -1.4143 C   0  0  0  0  0  0  0  0  0 25  0  0
    0.7024   -2.2769   -0.7772 N   0  0  0  0  0  0  0  0  0 26  0  0
   -2.5715   -0.5728   -1.1618 C   0  0  0  0  0  0  0  0  0 12  0  0
   -2.9893   -1.1362   -1.9975 H   0  0  0  0  0  0  0  0  0 17  0  0
   -3.2607    0.5056   -0.6320 C   0  0  0  0  0  0  0  0  0 13  0  0
   -4.2226    0.7680   -1.0535 H   0  0  0  0  0  0  0  0  0 16  0  0
   -2.7444    1.2204    0.4321 C   0  0  0  0  0  0  0  0  0 14  0  0
   -3.2578    2.0561    0.8668 H   0  0  0  0  0  0  0  0  0 15  0  0
   -0.0066    3.7703    0.7459 C   0  0  0  0  0  0  0  0  0 32  0  0
   -0.1094    5.0250    1.6097 C   0  0  0  0  0  0  0  0  0 33  0  0
    0.8713    5.3181    1.9844 H   0  0  0  0  0  0  0  0  0 34  0  0
   -0.5196    5.8459    1.0231 H   0  0  0  0  0  0  0  0  0 35  0  0
   -0.7700    4.8361    2.4524 H   0  0  0  0  0  0  0  0  0 36  0  0
    0.6842    3.9364   -0.0787 H   0  0  0  0  0  0  0  0  0 37  0  0
   -0.9837    3.5280    0.3331 H   0  0  0  0  0  0  0  0  0 38  0  0
    1.7423    2.6025    3.0780 H   0  0  0  0  0  0  0  0  0 39  0  0
    2.3618    3.3383    1.5782 H   0  0  0  0  0  0  0  0  0 40  0  0
  1  2  1  0
  1  3  1  0
  1  4  1  0
  1  5  1  0
  5  6  1  0
  7  6  1  6
  7  8  2  0
  7  9  2  0
  7 10  1  0
 10 11  4  0
 11 12  1  0
 11 13  4  0
 13 14  1  0
 14 15  4  0
 15 16  1  0
 15 17  4  0
 17 18  4  0
 18 19  1  0
 18 20  4  0
 20 21  1  0
 20 22  4  0
 22 23  1  0
 22 24  4  0
 24 25  4  0
 25 26  4  0
 13 27  4  0
 27 28  1  0
 27 29  4  0
 29 30  1  0
 29 31  4  0
 31 32  1  0
  6 33  1  0
 33 34  1  0
 34 35  1  0
 34 36  1  0
 34 37  1  0
 33 38  1  0
 33 39  1  0
  5 40  1  0
  5 41  1  0
 31 10  4  0
 26 14  4  0
 25 17  4  0
M  END
>  <sample_id>  (532)
train::CCN(CC)S(=O)(=O)c1cccc(-c2cn3cccnc3n2)c1__gen0000

>  <partition>  (532)
BAT_EXTERNAL_CONFIRM

>  <method>  (532)
BA_seed193

>  <candidate>  (532)
primary

$$$$
train::CCN(CC)S(=O)(=O)c1cccc(-c2cn3cccnc3n2)c1__gen0001
     RDKit          3D

 41 43  0  0  0  0  0  0  0  0999 V2000
   -0.1121   -2.4786   -1.8931 C   0  0  0  0  0  0  0  0  0  0  0  0
   -0.6427   -3.4293   -2.0058 H   0  0  0  0  0  0  0  0  0  1  0  0
   -0.1397   -1.9769   -2.8560 H   0  0  0  0  0  0  0  0  0  2  0  0
   -0.6331   -1.8785   -1.1603 H   0  0  0  0  0  0  0  0  0  3  0  0
    1.3322   -2.7621   -1.4729 C   0  0  0  0  0  0  0  0  0  4  0  0
    2.0818   -1.5640   -1.2485 N   0  0  0  0  0  0  0  0  0  5  0  0
    2.8840   -1.3165    0.1691 S   0  0  2  0  0  6  0  0  0  6  0  0
    4.2714   -1.0184   -0.0469 O   0  0  0  0  0  0  0  0  0  7  0  0
    2.5632   -2.3878    1.0656 O   0  0  0  0  0  0  0  0  0  8  0  0
    2.0855    0.1654    0.7748 C   0  0  0  0  0  0  0  0  0  9  0  0
    0.7116    0.1822    0.8531 C   0  0  0  0  0  0  0  0  0 10  0  0
    0.1456   -0.6900    0.5559 H   0  0  0  0  0  0  0  0  0 31  0  0
    0.0546    1.3155    1.3313 C   0  0  0  0  0  0  0  0  0 11  0  0
   -1.4149    1.2937    1.3709 C   0  0  0  0  0  0  0  0  0 18  0  0
   -2.2697    2.2228    1.9155 C   0  0  0  0  0  0  0  0  0 19  0  0
   -2.1052    3.1423    2.4382 H   0  0  0  0  0  0  0  0  0 30  0  0
   -3.5198    1.7331    1.6832 N   0  0  0  0  0  0  0  0  0 20  0  0
   -4.7630    2.2046    1.9855 C   0  0  0  0  0  0  0  0  0 21  0  0
   -4.8349    3.1403    2.5120 H   0  0  0  0  0  0  0  0  0 29  0  0
   -5.8311    1.4559    1.5722 C   0  0  0  0  0  0  0  0  0 22  0  0
   -6.8283    1.7836    1.7819 H   0  0  0  0  0  0  0  0  0 28  0  0
   -5.5891    0.2534    0.8827 C   0  0  0  0  0  0  0  0  0 23  0  0
   -6.4254   -0.3666    0.5546 H   0  0  0  0  0  0  0  0  0 27  0  0
   -4.4025   -0.1975    0.5853 N   0  0  0  0  0  0  0  0  0 24  0  0
   -3.3738    0.5248    0.9980 C   0  0  0  0  0  0  0  0  0 25  0  0
   -2.0829    0.2693    0.7948 N   0  0  0  0  0  0  0  0  0 26  0  0
    0.8035    2.4235    1.7335 C   0  0  0  0  0  0  0  0  0 12  0  0
    0.2999    3.3018    2.1021 H   0  0  0  0  0  0  0  0  0 17  0  0
    2.1877    2.3832    1.6645 C   0  0  0  0  0  0  0  0  0 13  0  0
    2.7473    3.2618    1.9679 H   0  0  0  0  0  0  0  0  0 16  0  0
    2.8300    1.2635    1.1655 C   0  0  0  0  0  0  0  0  0 14  0  0
    3.9170    1.2181    1.1043 H   0  0  0  0  0  0  0  0  0 15  0  0
    2.5184   -0.7491   -2.3497 C   0  0  0  0  0  0  0  0  0 32  0  0
    3.7578   -1.3084   -3.0629 C   0  0  0  0  0  0  0  0  0 33  0  0
    4.5650   -1.4473   -2.3531 H   0  0  0  0  0  0  0  0  0 34  0  0
    4.0746   -0.6184   -3.8427 H   0  0  0  0  0  0  0  0  0 35  0  0
    3.5234   -2.2734   -3.5256 H   0  0  0  0  0  0  0  0  0 36  0  0
    1.6912   -0.6323   -3.0645 H   0  0  0  0  0  0  0  0  0 37  0  0
    2.7645    0.2389   -1.9417 H   0  0  0  0  0  0  0  0  0 38  0  0
    1.3404   -3.2941   -0.5184 H   0  0  0  0  0  0  0  0  0 39  0  0
    1.8176   -3.3886   -2.2203 H   0  0  0  0  0  0  0  0  0 40  0  0
  1  2  1  0
  1  3  1  0
  1  4  1  0
  1  5  1  0
  5  6  1  0
  7  6  1  6
  7  8  2  0
  7  9  2  0
  7 10  1  0
 10 11  4  0
 11 12  1  0
 11 13  4  0
 13 14  1  0
 14 15  4  0
 15 16  1  0
 15 17  4  0
 17 18  4  0
 18 19  1  0
 18 20  4  0
 20 21  1  0
 20 22  4  0
 22 23  1  0
 22 24  4  0
 24 25  4  0
 25 26  4  0
 13 27  4  0
 27 28  1  0
 27 29  4  0
 29 30  1  0
 29 31  4  0
 31 32  1  0
  6 33  1  0
 33 34  1  0
 34 35  1  0
 34 36  1  0
 34 37  1  0
 33 38  1  0
 33 39  1  0
  5 40  1  0
  5 41  1  0
 31 10  4  0
 26 14  4  0
 25 17  4  0
M  END
>  <sample_id>  (533)
train::CCN(CC)S(=O)(=O)c1cccc(-c2cn3cccnc3n2)c1__gen0001

>  <partition>  (533)
BAT_EXTERNAL_CONFIRM

>  <method>  (533)
BA_seed193

>  <candidate>  (533)
primary

$$$$
train::CCN(CC)S(=O)(=O)c1cccc(-c2cn3cccnc3n2)c1__gen0002
     RDKit          3D

 41 43  0  0  0  0  0  0  0  0999 V2000
    0.7817    0.5098   -4.7051 C   0  0  0  0  0  0  0  0  0  0  0  0
    1.8209    0.1910   -4.7059 H   0  0  0  0  0  0  0  0  0  1  0  0
    0.7169    1.5076   -5.1279 H   0  0  0  0  0  0  0  0  0  2  0  0
    0.2217   -0.1772   -5.3427 H   0  0  0  0  0  0  0  0  0  3  0  0
    0.2319    0.4876   -3.2924 C   0  0  0  0  0  0  0  0  0  4  0  0
    0.3001   -0.8409   -2.7204 N   0  0  0  0  0  0  0  0  0  5  0  0
    1.7119   -1.3964   -2.0742 S   0  0  2  0  0  6  0  0  0  6  0  0
    2.6851   -0.3426   -2.1869 O   0  0  0  0  0  0  0  0  0  7  0  0
    2.0185   -2.6919   -2.6083 O   0  0  0  0  0  0  0  0  0  8  0  0
    1.3049   -1.6197   -0.3379 C   0  0  0  0  0  0  0  0  0  9  0  0
    0.8681   -0.5325    0.3768 C   0  0  0  0  0  0  0  0  0 10  0  0
    0.8011    0.4360   -0.0996 H   0  0  0  0  0  0  0  0  0 31  0  0
    0.5306   -0.6691    1.7074 C   0  0  0  0  0  0  0  0  0 11  0  0
    0.0570    0.4846    2.4635 C   0  0  0  0  0  0  0  0  0 18  0  0
   -0.1379    0.6292    3.8155 C   0  0  0  0  0  0  0  0  0 19  0  0
   -0.0174   -0.0573    4.6363 H   0  0  0  0  0  0  0  0  0 30  0  0
   -0.5820    1.8987    3.9957 N   0  0  0  0  0  0  0  0  0 20  0  0
   -0.9351    2.6017    5.1076 C   0  0  0  0  0  0  0  0  0 21  0  0
   -0.8727    2.1047    6.0579 H   0  0  0  0  0  0  0  0  0 29  0  0
   -1.3328    3.8977    4.9129 C   0  0  0  0  0  0  0  0  0 22  0  0
   -1.6298    4.4957    5.7627 H   0  0  0  0  0  0  0  0  0 28  0  0
   -1.3700    4.4163    3.6129 C   0  0  0  0  0  0  0  0  0 23  0  0
   -1.6968    5.4270    3.4385 H   0  0  0  0  0  0  0  0  0 27  0  0
   -1.0199    3.7371    2.5506 N   0  0  0  0  0  0  0  0  0 24  0  0
   -0.6247    2.5041    2.7115 C   0  0  0  0  0  0  0  0  0 25  0  0
   -0.2268    1.6347    1.8045 N   0  0  0  0  0  0  0  0  0 26  0  0
    0.6470   -1.9307    2.3152 C   0  0  0  0  0  0  0  0  0 12  0  0
    0.3999   -2.0583    3.3619 H   0  0  0  0  0  0  0  0  0 17  0  0
    1.0946   -3.0132    1.5888 C   0  0  0  0  0  0  0  0  0 13  0  0
    1.1851   -3.9866    2.0560 H   0  0  0  0  0  0  0  0  0 16  0  0
    1.4219   -2.8669    0.2320 C   0  0  0  0  0  0  0  0  0 14  0  0
    1.7680   -3.6928   -0.3586 H   0  0  0  0  0  0  0  0  0 15  0  0
   -0.8105   -1.7288   -2.6283 C   0  0  0  0  0  0  0  0  0 32  0  0
   -1.7210   -1.7782   -3.8326 C   0  0  0  0  0  0  0  0  0 33  0  0
   -2.2086   -0.8136   -3.9858 H   0  0  0  0  0  0  0  0  0 34  0  0
   -1.1709   -2.0368   -4.7283 H   0  0  0  0  0  0  0  0  0 35  0  0
   -2.5056   -2.5171   -3.6794 H   0  0  0  0  0  0  0  0  0 36  0  0
   -1.4331   -1.4758   -1.7449 H   0  0  0  0  0  0  0  0  0 37  0  0
   -0.3756   -2.7153   -2.4671 H   0  0  0  0  0  0  0  0  0 38  0  0
   -0.7739    0.8729   -3.2326 H   0  0  0  0  0  0  0  0  0 39  0  0
    0.8783    1.1051   -2.6494 H   0  0  0  0  0  0  0  0  0 40  0  0
  1  2  1  0
  1  3  1  0
  1  4  1  0
  1  5  1  0
  5  6  1  0
  7  6  1  6
  7  8  2  0
  7  9  2  0
  7 10  1  0
 10 11  4  0
 11 12  1  0
 11 13  4  0
 13 14  1  0
 14 15  4  0
 15 16  1  0
 15 17  4  0
 17 18  4  0
 18 19  1  0
 18 20  4  0
 20 21  1  0
 20 22  4  0
 22 23  1  0
 22 24  4  0
 24 25  4  0
 25 26  4  0
 13 27  4  0
 27 28  1  0
 27 29  4  0
 29 30  1  0
 29 31  4  0
 31 32  1  0
  6 33  1  0
 33 34  1  0
 34 35  1  0
 34 36  1  0
 34 37  1  0
 33 38  1  0
 33 39  1  0
  5 40  1  0
  5 41  1  0
 31 10  4  0
 26 14  4  0
 25 17  4  0
M  END
>  <sample_id>  (534)
train::CCN(CC)S(=O)(=O)c1cccc(-c2cn3cccnc3n2)c1__gen0002

>  <partition>  (534)
BAT_EXTERNAL_CONFIRM

>  <method>  (534)
BA_seed193

>  <candidate>  (534)
primary

$$$$
train::Cc1ccc(C)c(-c2nc3ccc(N)cc3[nH]2)c1__gen0000
     RDKit          3D

 33 35  0  0  0  0  0  0  0  0999 V2000
   -3.4748   -0.3710    3.4954 C   0  0  0  0  0  0  0  0  0  0  0  0
   -2.9441    0.3318    2.2870 C   0  0  0  0  0  0  0  0  0  1  0  0
   -1.8013   -0.1398    1.6566 C   0  0  0  0  0  0  0  0  0  2  0  0
   -1.2973   -1.0168    2.0366 H   0  0  0  0  0  0  0  0  0 29  0  0
   -1.2802    0.4876    0.5297 C   0  0  0  0  0  0  0  0  0  3  0  0
   -0.0641   -0.0885   -0.0472 C   0  0  0  0  0  0  0  0  0 13  0  0
    0.1765   -1.3848   -0.0516 N   0  0  0  0  0  0  0  0  0 14  0  0
    1.4070   -1.5340   -0.6053 C   0  0  0  0  0  0  0  0  0 15  0  0
    2.1550   -2.6755   -0.8853 C   0  0  0  0  0  0  0  0  0 16  0  0
    1.7634   -3.6588   -0.6552 H   0  0  0  0  0  0  0  0  0 28  0  0
    3.3980   -2.5150   -1.4644 C   0  0  0  0  0  0  0  0  0 17  0  0
    3.9972   -3.3881   -1.6888 H   0  0  0  0  0  0  0  0  0 27  0  0
    3.9277   -1.2518   -1.7598 C   0  0  0  0  0  0  0  0  0 18  0  0
    5.2042   -1.1498   -2.2802 N   0  0  0  0  0  0  0  0  0 24  0  0
    5.5725   -1.9866   -2.7162 H   0  0  0  0  0  0  0  0  0 25  0  0
    5.4224   -0.2949   -2.7558 H   0  0  0  0  0  0  0  0  0 26  0  0
    3.1868   -0.1004   -1.4977 C   0  0  0  0  0  0  0  0  0 19  0  0
    3.5935    0.8791   -1.7226 H   0  0  0  0  0  0  0  0  0 23  0  0
    1.9426   -0.2626   -0.9192 C   0  0  0  0  0  0  0  0  0 20  0  0
    0.9830    0.6354   -0.5385 N   0  0  0  0  0  0  0  0  0 21  0  0
    1.0536    1.6322   -0.5823 H   0  0  0  0  0  0  0  0  0 22  0  0
   -1.9272    1.6043   -0.0177 C   0  0  0  0  0  0  0  0  0  4  0  0
   -1.4679    2.2740   -1.2725 C   0  0  0  0  0  0  0  0  0  9  0  0
   -2.3072    2.7156   -1.7899 H   0  0  0  0  0  0  0  0  0 10  0  0
   -0.9903    1.5493   -1.9517 H   0  0  0  0  0  0  0  0  0 11  0  0
   -0.7449    3.0595   -1.0638 H   0  0  0  0  0  0  0  0  0 12  0  0
   -3.0612    2.0736    0.6324 C   0  0  0  0  0  0  0  0  0  5  0  0
   -3.5719    2.9313    0.2219 H   0  0  0  0  0  0  0  0  0  8  0  0
   -3.5655    1.4584    1.7591 C   0  0  0  0  0  0  0  0  0  6  0  0
   -4.4495    1.8557    2.2376 H   0  0  0  0  0  0  0  0  0  7  0  0
   -2.6845   -0.5318    4.2323 H   0  0  0  0  0  0  0  0  0 30  0  0
   -4.2728    0.2069    3.9632 H   0  0  0  0  0  0  0  0  0 31  0  0
   -3.8786   -1.3446    3.2137 H   0  0  0  0  0  0  0  0  0 32  0  0
  1  2  1  0
  2  3  4  0
  3  4  1  0
  3  5  4  0
  5  6  1  0
  6  7  4  0
  7  8  4  0
  8  9  4  0
  9 10  1  0
  9 11  4  0
 11 12  1  0
 11 13  4  0
 13 14  1  0
 14 15  1  0
 14 16  1  0
 13 17  4  0
 17 18  1  0
 17 19  4  0
 19 20  4  0
 20 21  1  0
  5 22  4  0
 22 23  1  0
 23 24  1  0
 23 25  1  0
 23 26  1  0
 22 27  4  0
 27 28  1  0
 27 29  4  0
 29 30  1  0
  1 31  1  0
  1 32  1  0
  1 33  1  0
 29  2  4  0
 20  6  4  0
 19  8  4  0
M  END
>  <sample_id>  (535)
train::Cc1ccc(C)c(-c2nc3ccc(N)cc3[nH]2)c1__gen0000

>  <partition>  (535)
BAT_EXTERNAL_CONFIRM

>  <method>  (535)
BA_seed193

>  <candidate>  (535)
primary

$$$$
train::Cc1ccc(C)c(-c2nc3ccc(N)cc3[nH]2)c1__gen0001
     RDKit          3D

 33 35  0  0  0  0  0  0  0  0999 V2000
    2.0854    3.5186    2.8271 C   0  0  0  0  0  0  0  0  0  0  0  0
    1.9352    2.0633    2.4432 C   0  0  0  0  0  0  0  0  0  1  0  0
    1.1522    1.6821    1.3630 C   0  0  0  0  0  0  0  0  0  2  0  0
    0.6449    2.4246    0.7665 H   0  0  0  0  0  0  0  0  0 29  0  0
    0.9823    0.3467    1.0261 C   0  0  0  0  0  0  0  0  0  3  0  0
    0.0951    0.0584   -0.0940 C   0  0  0  0  0  0  0  0  0 13  0  0
    0.0460    0.7924   -1.1916 N   0  0  0  0  0  0  0  0  0 14  0  0
   -0.9144    0.2181   -1.9739 C   0  0  0  0  0  0  0  0  0 15  0  0
   -1.3878    0.5765   -3.2372 C   0  0  0  0  0  0  0  0  0 16  0  0
   -0.9710    1.4244   -3.7588 H   0  0  0  0  0  0  0  0  0 28  0  0
   -2.3997   -0.1874   -3.7840 C   0  0  0  0  0  0  0  0  0 17  0  0
   -2.7832    0.0696   -4.7614 H   0  0  0  0  0  0  0  0  0 27  0  0
   -2.9606   -1.2875   -3.1158 C   0  0  0  0  0  0  0  0  0 18  0  0
   -4.0274   -1.9687   -3.6897 N   0  0  0  0  0  0  0  0  0 24  0  0
   -4.1390   -1.8308   -4.6785 H   0  0  0  0  0  0  0  0  0 25  0  0
   -4.2005   -2.8871   -3.3397 H   0  0  0  0  0  0  0  0  0 26  0  0
   -2.4969   -1.6530   -1.8541 C   0  0  0  0  0  0  0  0  0 19  0  0
   -2.9242   -2.4948   -1.3293 H   0  0  0  0  0  0  0  0  0 23  0  0
   -1.4804   -0.8908   -1.2999 C   0  0  0  0  0  0  0  0  0 20  0  0
   -0.8075   -0.9642   -0.1141 N   0  0  0  0  0  0  0  0  0 21  0  0
   -1.0003   -1.6048    0.6326 H   0  0  0  0  0  0  0  0  0 22  0  0
    1.6489   -0.6512    1.7547 C   0  0  0  0  0  0  0  0  0  4  0  0
    1.6081   -2.0998    1.3575 C   0  0  0  0  0  0  0  0  0  9  0  0
    2.5753   -2.5631    1.5703 H   0  0  0  0  0  0  0  0  0 10  0  0
    0.8622   -2.6359    1.9449 H   0  0  0  0  0  0  0  0  0 11  0  0
    1.3887   -2.2162    0.3051 H   0  0  0  0  0  0  0  0  0 12  0  0
    2.4364   -0.2569    2.8256 C   0  0  0  0  0  0  0  0  0  5  0  0
    2.9520   -1.0109    3.3982 H   0  0  0  0  0  0  0  0  0  8  0  0
    2.5549    1.0721    3.1879 C   0  0  0  0  0  0  0  0  0  6  0  0
    3.1620    1.3397    4.0407 H   0  0  0  0  0  0  0  0  0  7  0  0
    1.7434    4.1529    2.0163 H   0  0  0  0  0  0  0  0  0 30  0  0
    3.1287    3.7392    3.0469 H   0  0  0  0  0  0  0  0  0 31  0  0
    1.4915    3.7246    3.7152 H   0  0  0  0  0  0  0  0  0 32  0  0
  1  2  1  0
  2  3  4  0
  3  4  1  0
  3  5  4  0
  5  6  1  0
  6  7  4  0
  7  8  4  0
  8  9  4  0
  9 10  1  0
  9 11  4  0
 11 12  1  0
 11 13  4  0
 13 14  1  0
 14 15  1  0
 14 16  1  0
 13 17  4  0
 17 18  1  0
 17 19  4  0
 19 20  4  0
 20 21  1  0
  5 22  4  0
 22 23  1  0
 23 24  1  0
 23 25  1  0
 23 26  1  0
 22 27  4  0
 27 28  1  0
 27 29  4  0
 29 30  1  0
  1 31  1  0
  1 32  1  0
  1 33  1  0
 29  2  4  0
 20  6  4  0
 19  8  4  0
M  END
>  <sample_id>  (536)
train::Cc1ccc(C)c(-c2nc3ccc(N)cc3[nH]2)c1__gen0001

>  <partition>  (536)
BAT_EXTERNAL_CONFIRM

>  <method>  (536)
BA_seed193

>  <candidate>  (536)
primary

$$$$
train::Cc1ccc(C)c(-c2nc3ccc(N)cc3[nH]2)c1__gen0002
     RDKit          3D

 33 35  0  0  0  0  0  0  0  0999 V2000
    4.8124   -0.4683   -0.9110 C   0  0  0  0  0  0  0  0  0  0  0  0
    3.5802   -1.0090   -0.3021 C   0  0  0  0  0  0  0  0  0  1  0  0
    2.3964   -0.3067   -0.3430 C   0  0  0  0  0  0  0  0  0  2  0  0
    2.3583    0.6777   -0.7908 H   0  0  0  0  0  0  0  0  0 29  0  0
    1.2205   -0.7771    0.2219 C   0  0  0  0  0  0  0  0  0  3  0  0
    0.0430    0.0679    0.0969 C   0  0  0  0  0  0  0  0  0 13  0  0
    0.1160    1.3833    0.0520 N   0  0  0  0  0  0  0  0  0 14  0  0
   -1.1685    1.8308   -0.1246 C   0  0  0  0  0  0  0  0  0 15  0  0
   -1.6741    3.1101   -0.2270 C   0  0  0  0  0  0  0  0  0 16  0  0
   -1.0276    3.9691   -0.1680 H   0  0  0  0  0  0  0  0  0 28  0  0
   -3.0406    3.2613   -0.4126 C   0  0  0  0  0  0  0  0  0 17  0  0
   -3.4582    4.2495   -0.4846 H   0  0  0  0  0  0  0  0  0 27  0  0
   -3.8987    2.1642   -0.4766 C   0  0  0  0  0  0  0  0  0 18  0  0
   -5.2710    2.3722   -0.5800 N   0  0  0  0  0  0  0  0  0 24  0  0
   -5.8040    1.5941   -0.9294 H   0  0  0  0  0  0  0  0  0 25  0  0
   -5.5442    3.2686   -0.9468 H   0  0  0  0  0  0  0  0  0 26  0  0
   -3.4016    0.8560   -0.3777 C   0  0  0  0  0  0  0  0  0 19  0  0
   -4.0771    0.0123   -0.4322 H   0  0  0  0  0  0  0  0  0 23  0  0
   -2.0358    0.7061   -0.1942 C   0  0  0  0  0  0  0  0  0 20  0  0
   -1.2506   -0.3816   -0.0493 N   0  0  0  0  0  0  0  0  0 21  0  0
   -1.5361   -1.3442   -0.1403 H   0  0  0  0  0  0  0  0  0 22  0  0
    1.2135   -2.0257    0.8642 C   0  0  0  0  0  0  0  0  0  4  0  0
    0.0108   -2.5774    1.5885 C   0  0  0  0  0  0  0  0  0  9  0  0
   -0.5896   -3.1742    0.9098 H   0  0  0  0  0  0  0  0  0 10  0  0
   -0.5919   -1.7742    1.9990 H   0  0  0  0  0  0  0  0  0 11  0  0
    0.3406   -3.2155    2.4055 H   0  0  0  0  0  0  0  0  0 12  0  0
    2.4071   -2.7373    0.9002 C   0  0  0  0  0  0  0  0  0  5  0  0
    2.4260   -3.6986    1.3978 H   0  0  0  0  0  0  0  0  0  8  0  0
    3.5608   -2.2539    0.3204 C   0  0  0  0  0  0  0  0  0  6  0  0
    4.4676   -2.8544    0.3516 H   0  0  0  0  0  0  0  0  0  7  0  0
    4.6613   -0.2430   -1.9692 H   0  0  0  0  0  0  0  0  0 30  0  0
    5.6534   -1.1519   -0.8309 H   0  0  0  0  0  0  0  0  0 31  0  0
    5.1019    0.4698   -0.4174 H   0  0  0  0  0  0  0  0  0 32  0  0
  1  2  1  0
  2  3  4  0
  3  4  1  0
  3  5  4  0
  5  6  1  0
  6  7  4  0
  7  8  4  0
  8  9  4  0
  9 10  1  0
  9 11  4  0
 11 12  1  0
 11 13  4  0
 13 14  1  0
 14 15  1  0
 14 16  1  0
 13 17  4  0
 17 18  1  0
 17 19  4  0
 19 20  4  0
 20 21  1  0
  5 22  4  0
 22 23  1  0
 23 24  1  0
 23 25  1  0
 23 26  1  0
 22 27  4  0
 27 28  1  0
 27 29  4  0
 29 30  1  0
  1 31  1  0
  1 32  1  0
  1 33  1  0
 29  2  4  0
 20  6  4  0
 19  8  4  0
M  END
>  <sample_id>  (537)
train::Cc1ccc(C)c(-c2nc3ccc(N)cc3[nH]2)c1__gen0002

>  <partition>  (537)
BAT_EXTERNAL_CONFIRM

>  <method>  (537)
BA_seed193

>  <candidate>  (537)
primary

$$$$
train::CC(=O)Oc1c(_C=C(\C#N)C(N)=O)[nH]c2ccccc12__gen0000
     RDKit          3D

 31 32  0  0  0  0  0  0  0  0999 V2000
    0.3081   -3.1590    2.8118 C   0  0  0  0  0  0  0  0  0  0  0  0
    0.2745   -1.7387    2.3201 C   0  0  0  0  0  0  0  0  0  1  0  0
    0.8694   -0.8005    2.7877 O   0  0  0  0  0  0  0  0  0  2  0  0
   -0.4925   -1.6172    1.1881 O   0  0  0  0  0  0  0  0  0  3  0  0
   -0.6238   -0.3950    0.6137 C   0  0  0  0  0  0  0  0  0  4  0  0
    0.0787    0.0247   -0.5081 C   0  0  0  0  0  0  0  0  0  5  0  0
    1.0617   -0.7037   -1.2024 C   0  0  0  0  0  0  0  0  0  6  0  0
    1.7558   -0.3328   -2.3137 C   0  0  0  0  0  0  0  0  0  7  0  0
    1.5959    0.8839   -2.9697 C   0  0  0  0  0  0  0  0  0  8  0  0
    1.4749    1.8846   -3.5238 N   0  0  0  0  0  0  0  0  0  9  0  0
    2.7541   -1.3016   -2.8661 C   0  0  0  0  0  0  0  0  0 10  0  0
    2.9324   -2.4037   -2.3791 O   0  0  0  0  0  0  0  0  0 11  0  0
    3.4589   -0.8611   -3.9393 N   0  0  0  0  0  0  0  0  0 12  0  0
    4.1240   -1.4865   -4.3681 H   0  0  0  0  0  0  0  0  0 13  0  0
    3.2860    0.0399   -4.3553 H   0  0  0  0  0  0  0  0  0 14  0  0
    1.2771   -1.6868   -0.8003 H   0  0  0  0  0  0  0  0  0 15  0  0
   -0.3532    1.3144   -0.8198 N   0  0  0  0  0  0  0  0  0 16  0  0
   -0.0176    1.8397   -1.6118 H   0  0  0  0  0  0  0  0  0 27  0  0
   -1.2822    1.7054    0.0827 C   0  0  0  0  0  0  0  0  0 17  0  0
   -1.9868    2.9019    0.1747 C   0  0  0  0  0  0  0  0  0 18  0  0
   -1.8406    3.6931   -0.5465 H   0  0  0  0  0  0  0  0  0 26  0  0
   -2.8884    3.0366    1.2110 C   0  0  0  0  0  0  0  0  0 19  0  0
   -3.4532    3.9487    1.3053 H   0  0  0  0  0  0  0  0  0 25  0  0
   -3.0828    2.0216    2.1404 C   0  0  0  0  0  0  0  0  0 20  0  0
   -3.7987    2.1613    2.9379 H   0  0  0  0  0  0  0  0  0 24  0  0
   -2.3962    0.8249    2.0533 C   0  0  0  0  0  0  0  0  0 21  0  0
   -2.5510    0.0284    2.7738 H   0  0  0  0  0  0  0  0  0 23  0  0
   -1.4763    0.6590    1.0156 C   0  0  0  0  0  0  0  0  0 22  0  0
    1.2452   -3.6119    2.4940 H   0  0  0  0  0  0  0  0  0 28  0  0
    0.2819   -3.1559    3.9015 H   0  0  0  0  0  0  0  0  0 29  0  0
   -0.5356   -3.7137    2.3924 H   0  0  0  0  0  0  0  0  0 30  0  0
  1  2  1  0
  2  3  2  0
  2  4  1  0
  4  5  1  0
  5  6  4  0
  6  7  1  0
  7  8  2  0
  8  9  1  0
  9 10  3  0
  8 11  1  0
 11 12  2  0
 11 13  1  0
 13 14  1  0
 13 15  1  0
  7 16  1  0
  6 17  4  0
 17 18  1  0
 17 19  4  0
 19 20  4  0
 20 21  1  0
 20 22  4  0
 22 23  1  0
 22 24  4  0
 24 25  1  0
 24 26  4  0
 26 27  1  0
 26 28  4  0
  1 29  1  0
  1 30  1  0
  1 31  1  0
 28  5  4  0
 28 19  4  0
M  END
>  <sample_id>  (538)
train::CC(=O)Oc1c(_C=C(\C#N)C(N)=O)[nH]c2ccccc12__gen0000

>  <partition>  (538)
BAT_EXTERNAL_CONFIRM

>  <method>  (538)
BA_seed193

>  <candidate>  (538)
primary

$$$$
train::CC(=O)Oc1c(_C=C(\C#N)C(N)=O)[nH]c2ccccc12__gen0001
     RDKit          3D

 31 32  0  0  0  0  0  0  0  0999 V2000
   -1.5110   -3.2014   -1.3437 C   0  0  0  0  0  0  0  0  0  0  0  0
   -0.7013   -1.9514   -1.0889 C   0  0  0  0  0  0  0  0  0  1  0  0
   -0.1742   -1.2989   -1.9563 O   0  0  0  0  0  0  0  0  0  2  0  0
   -0.6453   -1.6698    0.2314 O   0  0  0  0  0  0  0  0  0  3  0  0
   -0.0629   -0.5286    0.7062 C   0  0  0  0  0  0  0  0  0  4  0  0
   -0.3635    0.8091    0.3841 C   0  0  0  0  0  0  0  0  0  5  0  0
   -1.1906    1.3569   -0.6416 C   0  0  0  0  0  0  0  0  0  6  0  0
   -0.8254    1.4115   -1.9445 C   0  0  0  0  0  0  0  0  0  7  0  0
    0.4268    1.0208   -2.4412 C   0  0  0  0  0  0  0  0  0  8  0  0
    1.4570    0.8755   -2.9459 N   0  0  0  0  0  0  0  0  0  9  0  0
   -1.8022    1.9787   -2.9362 C   0  0  0  0  0  0  0  0  0 10  0  0
   -2.9349    2.3182   -2.6273 O   0  0  0  0  0  0  0  0  0 11  0  0
   -1.3416    2.0724   -4.2022 N   0  0  0  0  0  0  0  0  0 12  0  0
   -0.4464    1.6914   -4.4628 H   0  0  0  0  0  0  0  0  0 13  0  0
   -1.9490    2.4256   -4.9216 H   0  0  0  0  0  0  0  0  0 14  0  0
   -2.1197    1.8290   -0.3609 H   0  0  0  0  0  0  0  0  0 15  0  0
    0.2746    1.5980    1.3070 N   0  0  0  0  0  0  0  0  0 16  0  0
    0.2598    2.6038    1.3014 H   0  0  0  0  0  0  0  0  0 27  0  0
    1.0130    0.8276    2.1777 C   0  0  0  0  0  0  0  0  0 17  0  0
    1.8353    1.1928    3.2354 C   0  0  0  0  0  0  0  0  0 18  0  0
    2.0070    2.2288    3.4728 H   0  0  0  0  0  0  0  0  0 26  0  0
    2.4329    0.1784    3.9458 C   0  0  0  0  0  0  0  0  0 19  0  0
    3.0706    0.4247    4.7827 H   0  0  0  0  0  0  0  0  0 25  0  0
    2.2191   -1.1637    3.6261 C   0  0  0  0  0  0  0  0  0 20  0  0
    2.6935   -1.9295    4.2235 H   0  0  0  0  0  0  0  0  0 24  0  0
    1.4112   -1.5278    2.5777 C   0  0  0  0  0  0  0  0  0 21  0  0
    1.2500   -2.5679    2.3257 H   0  0  0  0  0  0  0  0  0 23  0  0
    0.7990   -0.5243    1.8285 C   0  0  0  0  0  0  0  0  0 22  0  0
   -2.4730   -2.9087   -1.7140 H   0  0  0  0  0  0  0  0  0 28  0  0
   -1.0052   -3.7958   -2.1043 H   0  0  0  0  0  0  0  0  0 29  0  0
   -1.6034   -3.7752   -0.4343 H   0  0  0  0  0  0  0  0  0 30  0  0
  1  2  1  0
  2  3  2  0
  2  4  1  0
  4  5  1  0
  5  6  4  0
  6  7  1  0
  7  8  2  0
  8  9  1  0
  9 10  3  0
  8 11  1  0
 11 12  2  0
 11 13  1  0
 13 14  1  0
 13 15  1  0
  7 16  1  0
  6 17  4  0
 17 18  1  0
 17 19  4  0
 19 20  4  0
 20 21  1  0
 20 22  4  0
 22 23  1  0
 22 24  4  0
 24 25  1  0
 24 26  4  0
 26 27  1  0
 26 28  4  0
  1 29  1  0
  1 30  1  0
  1 31  1  0
 28  5  4  0
 28 19  4  0
M  END
>  <sample_id>  (539)
train::CC(=O)Oc1c(_C=C(\C#N)C(N)=O)[nH]c2ccccc12__gen0001

>  <partition>  (539)
BAT_EXTERNAL_CONFIRM

>  <method>  (539)
BA_seed193

>  <candidate>  (539)
primary

$$$$
train::CC(=O)Oc1c(_C=C(\C#N)C(N)=O)[nH]c2ccccc12__gen0002
     RDKit          3D

 31 32  0  0  0  0  0  0  0  0999 V2000
   -1.9296   -1.1184   -3.5266 C   0  0  0  0  0  0  0  0  0  0  0  0
   -1.3796   -0.3249   -2.3755 C   0  0  0  0  0  0  0  0  0  1  0  0
   -1.0025    0.8171   -2.4054 O   0  0  0  0  0  0  0  0  0  2  0  0
   -1.3860   -1.0798   -1.2472 O   0  0  0  0  0  0  0  0  0  3  0  0
   -0.9044   -0.5198   -0.0784 C   0  0  0  0  0  0  0  0  0  4  0  0
    0.3680   -0.0237    0.1397 C   0  0  0  0  0  0  0  0  0  5  0  0
    1.4219    0.0486   -0.7698 C   0  0  0  0  0  0  0  0  0  6  0  0
    2.6868    0.5360   -0.5846 C   0  0  0  0  0  0  0  0  0  7  0  0
    3.1203    1.1050    0.6154 C   0  0  0  0  0  0  0  0  0  8  0  0
    3.5069    1.5852    1.5952 N   0  0  0  0  0  0  0  0  0  9  0  0
    3.6617    0.4656   -1.7170 C   0  0  0  0  0  0  0  0  0 10  0  0
    3.4012   -0.1275   -2.7483 O   0  0  0  0  0  0  0  0  0 11  0  0
    4.8430    1.0746   -1.5032 N   0  0  0  0  0  0  0  0  0 12  0  0
    5.5350    1.0423   -2.2397 H   0  0  0  0  0  0  0  0  0 13  0  0
    5.0603    1.5572   -0.6493 H   0  0  0  0  0  0  0  0  0 14  0  0
    1.2280   -0.3379   -1.7607 H   0  0  0  0  0  0  0  0  0 15  0  0
    0.4284    0.3851    1.4764 N   0  0  0  0  0  0  0  0  0 16  0  0
    1.2266    0.8331    1.8978 H   0  0  0  0  0  0  0  0  0 27  0  0
   -0.7733    0.1673    2.0748 C   0  0  0  0  0  0  0  0  0 17  0  0
   -1.1825    0.4068    3.3837 C   0  0  0  0  0  0  0  0  0 18  0  0
   -0.5213    0.8620    4.1017 H   0  0  0  0  0  0  0  0  0 26  0  0
   -2.4793    0.0564    3.7178 C   0  0  0  0  0  0  0  0  0 19  0  0
   -2.8330    0.2459    4.7223 H   0  0  0  0  0  0  0  0  0 25  0  0
   -3.3454   -0.5212    2.7857 C   0  0  0  0  0  0  0  0  0 20  0  0
   -4.3508   -0.7738    3.0894 H   0  0  0  0  0  0  0  0  0 24  0  0
   -2.9493   -0.7634    1.4915 C   0  0  0  0  0  0  0  0  0 21  0  0
   -3.6207   -1.2137    0.7731 H   0  0  0  0  0  0  0  0  0 23  0  0
   -1.6461   -0.4292    1.1224 C   0  0  0  0  0  0  0  0  0 22  0  0
   -2.9527   -1.4084   -3.3014 H   0  0  0  0  0  0  0  0  0 28  0  0
   -1.8896   -0.5201   -4.4302 H   0  0  0  0  0  0  0  0  0 29  0  0
   -1.3423   -2.0265   -3.6496 H   0  0  0  0  0  0  0  0  0 30  0  0
  1  2  1  0
  2  3  2  0
  2  4  1  0
  4  5  1  0
  5  6  4  0
  6  7  1  0
  7  8  2  0
  8  9  1  0
  9 10  3  0
  8 11  1  0
 11 12  2  0
 11 13  1  0
 13 14  1  0
 13 15  1  0
  7 16  1  0
  6 17  4  0
 17 18  1  0
 17 19  4  0
 19 20  4  0
 20 21  1  0
 20 22  4  0
 22 23  1  0
 22 24  4  0
 24 25  1  0
 24 26  4  0
 26 27  1  0
 26 28  4  0
  1 29  1  0
  1 30  1  0
  1 31  1  0
 28  5  4  0
 28 19  4  0
M  END
>  <sample_id>  (540)
train::CC(=O)Oc1c(_C=C(\C#N)C(N)=O)[nH]c2ccccc12__gen0002

>  <partition>  (540)
BAT_EXTERNAL_CONFIRM

>  <method>  (540)
BA_seed193

>  <candidate>  (540)
primary

$$$$
train::CC1=C(C(=O)OCC(C)C)C(c2cccc(F)c2)N2C(=O)C(C)SC2=N1__gen0000
     RDKit          3D

 47 49  0  0  0  0  0  0  0  0999 V2000
   -3.3113    0.1420   -1.8980 C   0  0  0  0  0  0  0  0  0  0  0  0
   -2.5179   -0.3086   -0.7208 C   0  0  0  0  0  0  0  0  0  1  0  0
   -1.1509   -0.2946   -0.6757 C   0  0  0  0  0  0  0  0  0  2  0  0
   -0.3429    0.0956   -1.8327 C   0  0  0  0  0  0  0  0  0  3  0  0
   -0.7561    0.6817   -2.8094 O   0  0  0  0  0  0  0  0  0  4  0  0
    0.9350   -0.3245   -1.7245 O   0  0  0  0  0  0  0  0  0  5  0  0
    1.7781   -0.1024   -2.8451 C   0  0  0  0  0  0  0  0  0  6  0  0
    2.5215   -0.8919   -2.8079 H   0  0  0  0  0  0  0  0  0  7  0  0
    2.4225    1.2775   -2.8339 C   0  0  2  0  0  0  0  0  0  8  0  0
    3.1759    1.5111   -4.1351 C   0  0  0  0  0  0  0  0  0  9  0  0
    3.6528    2.4922   -4.1246 H   0  0  0  0  0  0  0  0  0 10  0  0
    2.5004    1.4623   -4.9817 H   0  0  0  0  0  0  0  0  0 11  0  0
    3.9502    0.7518   -4.2784 H   0  0  0  0  0  0  0  0  0 12  0  0
    3.3880    1.4067   -1.6469 C   0  0  0  0  0  0  0  0  0 13  0  0
    2.8570    1.2366   -0.7129 H   0  0  0  0  0  0  0  0  0 14  0  0
    3.7954    2.4093   -1.6079 H   0  0  0  0  0  0  0  0  0 15  0  0
    4.2072    0.7112   -1.7379 H   0  0  0  0  0  0  0  0  0 16  0  0
    1.6327    2.0236   -2.7216 H   0  0  0  0  0  0  0  0  0 17  0  0
    1.1660   -0.2118   -3.7567 H   0  0  0  0  0  0  0  0  0 18  0  0
   -0.4417   -0.6454    0.6111 C   0  0  1  0  0  0  0  0  0 19  0  0
   -0.0878    0.6507    1.3483 C   0  0  0  0  0  0  0  0  0 32  0  0
    1.1841    1.1675    1.2141 C   0  0  0  0  0  0  0  0  0 33  0  0
    1.9114    0.6096    0.6284 H   0  0  0  0  0  0  0  0  0 42  0  0
    1.5226    2.3494    1.8262 C   0  0  0  0  0  0  0  0  0 34  0  0
    2.5292    2.7557    1.7039 H   0  0  0  0  0  0  0  0  0 41  0  0
    0.5895    3.0365    2.5817 C   0  0  0  0  0  0  0  0  0 35  0  0
    0.8294    3.9738    3.0574 H   0  0  0  0  0  0  0  0  0 40  0  0
   -0.6691    2.4798    2.7288 C   0  0  0  0  0  0  0  0  0 36  0  0
   -1.5854    3.1345    3.4835 F   0  0  0  0  0  0  0  0  0 39  0  0
   -1.0144    1.2943    2.1311 C   0  0  0  0  0  0  0  0  0 37  0  0
   -2.0196    0.9123    2.2568 H   0  0  0  0  0  0  0  0  0 38  0  0
    0.4698   -1.2056    0.4044 H   0  0  0  0  0  0  0  0  0 43  0  0
   -1.3099   -1.4645    1.4548 N   0  0  0  0  0  0  0  0  0 20  0  0
   -0.8432   -2.3026    2.4291 C   0  0  0  0  0  0  0  0  0 21  0  0
    0.3274   -2.5237    2.6382 O   0  0  0  0  0  0  0  0  0 22  0  0
   -1.9807   -2.9582    3.1945 C   0  0  2  0  0  0  0  0  0 23  0  0
   -1.8650   -4.4719    3.1115 C   0  0  0  0  0  0  0  0  0 24  0  0
   -1.9171   -4.7977    2.0739 H   0  0  0  0  0  0  0  0  0 25  0  0
   -2.6770   -4.9396    3.6510 H   0  0  0  0  0  0  0  0  0 26  0  0
   -0.9265   -4.7870    3.5360 H   0  0  0  0  0  0  0  0  0 27  0  0
   -1.9288   -2.6546    4.2501 H   0  0  0  0  0  0  0  0  0 28  0  0
   -3.5102   -2.2533    2.5134 S   0  0  0  0  0  0  0  0  0 29  0  0
   -2.6740   -1.3862    1.2822 C   0  0  0  0  0  0  0  0  0 30  0  0
   -3.2625   -0.7988    0.3053 N   0  0  0  0  0  0  0  0  0 31  0  0
   -3.1979    1.2119   -2.0546 H   0  0  0  0  0  0  0  0  0 44  0  0
   -2.9895   -0.3722   -2.8050 H   0  0  0  0  0  0  0  0  0 45  0  0
   -4.3666   -0.0828   -1.7049 H   0  0  0  0  0  0  0  0  0 46  0  0
  1  2  1  0
  2  3  2  0
  3  4  1  0
  4  5  2  0
  4  6  1  0
  6  7  1  0
  7  8  1  0
  7  9  1  0
  9 10  1  0
 10 11  1  0
 10 12  1  0
 10 13  1  0
  9 14  1  0
 14 15  1  0
 14 16  1  0
 14 17  1  0
  9 18  1  6
  7 19  1  0
  3 20  1  0
 20 21  1  0
 21 22  4  0
 22 23  1  0
 22 24  4  0
 24 25  1  0
 24 26  4  0
 26 27  1  0
 26 28  4  0
 28 29  1  0
 28 30  4  0
 30 31  1  0
 20 32  1  6
 20 33  1  0
 33 34  1  0
 34 35  2  0
 34 36  1  0
 36 37  1  0
 37 38  1  0
 37 39  1  0
 37 40  1  0
 36 41  1  6
 36 42  1  0
 42 43  1  0
 43 44  2  0
  1 45  1  0
  1 46  1  0
  1 47  1  0
 44  2  1  0
 30 21  4  0
 43 33  1  0
M  END
>  <sample_id>  (541)
train::CC1=C(C(=O)OCC(C)C)C(c2cccc(F)c2)N2C(=O)C(C)SC2=N1__gen0000

>  <partition>  (541)
BAT_EXTERNAL_CONFIRM

>  <method>  (541)
BA_seed193

>  <candidate>  (541)
primary

$$$$
train::CC1=C(C(=O)OCC(C)C)C(c2cccc(F)c2)N2C(=O)C(C)SC2=N1__gen0001
     RDKit          3D

 47 49  0  0  0  0  0  0  0  0999 V2000
   -0.0083    1.5097    3.6797 C   0  0  0  0  0  0  0  0  0  0  0  0
   -0.1979    1.6427    2.2020 C   0  0  0  0  0  0  0  0  0  1  0  0
    0.1866    0.6851    1.3009 C   0  0  0  0  0  0  0  0  0  2  0  0
    0.7521   -0.5910    1.7073 C   0  0  0  0  0  0  0  0  0  3  0  0
    1.1016   -0.8864    2.8308 O   0  0  0  0  0  0  0  0  0  4  0  0
    0.9213   -1.4087    0.6516 O   0  0  0  0  0  0  0  0  0  5  0  0
    1.5039   -2.6780    0.9041 C   0  0  0  0  0  0  0  0  0  6  0  0
    1.2410   -2.9944    1.9213 H   0  0  0  0  0  0  0  0  0  7  0  0
    3.0307   -2.6321    0.7439 C   0  0  1  0  0  0  0  0  0  8  0  0
    3.6317   -3.9656    1.1819 C   0  0  0  0  0  0  0  0  0  9  0  0
    3.2656   -4.7756    0.5558 H   0  0  0  0  0  0  0  0  0 10  0  0
    3.3857   -4.1826    2.2166 H   0  0  0  0  0  0  0  0  0 11  0  0
    4.7233   -3.9309    1.0987 H   0  0  0  0  0  0  0  0  0 12  0  0
    3.4139   -2.3118   -0.6923 C   0  0  0  0  0  0  0  0  0 13  0  0
    3.0803   -3.1089   -1.3565 H   0  0  0  0  0  0  0  0  0 14  0  0
    4.4909   -2.1984   -0.7923 H   0  0  0  0  0  0  0  0  0 15  0  0
    2.9349   -1.3870   -1.0085 H   0  0  0  0  0  0  0  0  0 16  0  0
    3.4153   -1.8447    1.4078 H   0  0  0  0  0  0  0  0  0 17  0  0
    1.0673   -3.3648    0.1797 H   0  0  0  0  0  0  0  0  0 18  0  0
   -0.1001    0.8513   -0.1732 C   0  0  1  0  0  0  0  0  0 19  0  0
   -1.2285   -0.0232   -0.6403 C   0  0  0  0  0  0  0  0  0 32  0  0
   -2.4981    0.1354   -0.1005 C   0  0  0  0  0  0  0  0  0 33  0  0
   -2.6582    0.9156    0.6331 H   0  0  0  0  0  0  0  0  0 42  0  0
   -3.5405   -0.6659   -0.5065 C   0  0  0  0  0  0  0  0  0 34  0  0
   -4.5183   -0.5098   -0.0800 H   0  0  0  0  0  0  0  0  0 41  0  0
   -3.3389   -1.6564   -1.4476 C   0  0  0  0  0  0  0  0  0 35  0  0
   -4.1436   -2.2976   -1.7720 H   0  0  0  0  0  0  0  0  0 40  0  0
   -2.0658   -1.8099   -1.9705 C   0  0  0  0  0  0  0  0  0 36  0  0
   -1.8422   -2.7807   -2.8771 F   0  0  0  0  0  0  0  0  0 39  0  0
   -1.0053   -1.0082   -1.5829 C   0  0  0  0  0  0  0  0  0 37  0  0
   -0.0214   -1.1518   -2.0031 H   0  0  0  0  0  0  0  0  0 38  0  0
    0.7773    0.5949   -0.7901 H   0  0  0  0  0  0  0  0  0 43  0  0
   -0.4284    2.2611   -0.4415 N   0  0  0  0  0  0  0  0  0 20  0  0
   -0.5267    2.7330   -1.7262 C   0  0  0  0  0  0  0  0  0 21  0  0
   -0.1934    2.1081   -2.7022 O   0  0  0  0  0  0  0  0  0 22  0  0
   -1.0863    4.1389   -1.7692 C   0  0  1  0  0  0  0  0  0 23  0  0
   -2.3475    4.2004   -2.6134 C   0  0  0  0  0  0  0  0  0 24  0  0
   -3.1066    3.5191   -2.2219 H   0  0  0  0  0  0  0  0  0 25  0  0
   -2.1209    3.8851   -3.6329 H   0  0  0  0  0  0  0  0  0 26  0  0
   -2.7496    5.2037   -2.6238 H   0  0  0  0  0  0  0  0  0 27  0  0
   -0.3406    4.8284   -2.1654 H   0  0  0  0  0  0  0  0  0 28  0  0
   -1.4148    4.6119   -0.0358 S   0  0  0  0  0  0  0  0  0 29  0  0
   -0.8228    3.0932    0.5673 C   0  0  0  0  0  0  0  0  0 30  0  0
   -0.7427    2.8309    1.8188 N   0  0  0  0  0  0  0  0  0 31  0  0
   -0.5079    0.6133    4.0413 H   0  0  0  0  0  0  0  0  0 44  0  0
   -0.4184    2.3913    4.1680 H   0  0  0  0  0  0  0  0  0 45  0  0
    1.0499    1.4113    3.9150 H   0  0  0  0  0  0  0  0  0 46  0  0
  1  2  1  0
  2  3  2  0
  3  4  1  0
  4  5  2  0
  4  6  1  0
  6  7  1  0
  7  8  1  0
  7  9  1  0
  9 10  1  0
 10 11  1  0
 10 12  1  0
 10 13  1  0
  9 14  1  0
 14 15  1  0
 14 16  1  0
 14 17  1  0
  9 18  1  1
  7 19  1  0
  3 20  1  0
 20 21  1  0
 21 22  4  0
 22 23  1  0
 22 24  4  0
 24 25  1  0
 24 26  4  0
 26 27  1  0
 26 28  4  0
 28 29  1  0
 28 30  4  0
 30 31  1  0
 20 32  1  6
 20 33  1  0
 33 34  1  0
 34 35  2  0
 34 36  1  0
 36 37  1  0
 37 38  1  0
 37 39  1  0
 37 40  1  0
 36 41  1  6
 36 42  1  0
 42 43  1  0
 43 44  2  0
  1 45  1  0
  1 46  1  0
  1 47  1  0
 44  2  1  0
 30 21  4  0
 43 33  1  0
M  END
>  <sample_id>  (542)
train::CC1=C(C(=O)OCC(C)C)C(c2cccc(F)c2)N2C(=O)C(C)SC2=N1__gen0001

>  <partition>  (542)
BAT_EXTERNAL_CONFIRM

>  <method>  (542)
BA_seed193

>  <candidate>  (542)
primary

$$$$
train::CC1=C(C(=O)OCC(C)C)C(c2cccc(F)c2)N2C(=O)C(C)SC2=N1__gen0002
     RDKit          3D

 47 49  0  0  0  0  0  0  0  0999 V2000
    0.4581    3.5062    1.9159 C   0  0  0  0  0  0  0  0  0  0  0  0
    0.7158    2.0477    1.8266 C   0  0  0  0  0  0  0  0  0  1  0  0
    0.7372    1.3206    0.6694 C   0  0  0  0  0  0  0  0  0  2  0  0
    0.5368    1.8872   -0.6846 C   0  0  0  0  0  0  0  0  0  3  0  0
    0.3105    3.0402   -0.9326 O   0  0  0  0  0  0  0  0  0  4  0  0
    0.6211    0.9209   -1.5939 O   0  0  0  0  0  0  0  0  0  5  0  0
    0.3317    1.2587   -2.9444 C   0  0  0  0  0  0  0  0  0  6  0  0
    1.1803    0.9081   -3.5487 H   0  0  0  0  0  0  0  0  0  7  0  0
   -0.9503    0.5684   -3.4075 C   0  0  2  0  0  0  0  0  0  8  0  0
   -1.1346    0.7108   -4.8998 C   0  0  0  0  0  0  0  0  0  9  0  0
   -1.1901    1.7606   -5.1864 H   0  0  0  0  0  0  0  0  0 10  0  0
   -0.2988    0.2631   -5.4362 H   0  0  0  0  0  0  0  0  0 11  0  0
   -2.0470    0.2172   -5.2243 H   0  0  0  0  0  0  0  0  0 12  0  0
   -2.1638    1.1506   -2.6543 C   0  0  0  0  0  0  0  0  0 13  0  0
   -3.0714    0.6038   -2.9269 H   0  0  0  0  0  0  0  0  0 14  0  0
   -2.3000    2.1981   -2.9250 H   0  0  0  0  0  0  0  0  0 15  0  0
   -2.0211    1.0633   -1.5879 H   0  0  0  0  0  0  0  0  0 16  0  0
   -0.8737   -0.4980   -3.1495 H   0  0  0  0  0  0  0  0  0 17  0  0
    0.2475    2.3449   -3.0485 H   0  0  0  0  0  0  0  0  0 18  0  0
    0.9104   -0.1851    0.7039 C   0  0  2  0  0  0  0  0  0 19  0  0
   -0.3835   -0.8630    0.3038 C   0  0  0  0  0  0  0  0  0 32  0  0
   -0.4032   -1.8448   -0.6752 C   0  0  0  0  0  0  0  0  0 33  0  0
    0.5264   -2.1305   -1.1427 H   0  0  0  0  0  0  0  0  0 42  0  0
   -1.5921   -2.4360   -1.0413 C   0  0  0  0  0  0  0  0  0 34  0  0
   -1.6000   -3.1931   -1.8254 H   0  0  0  0  0  0  0  0  0 41  0  0
   -2.7800   -2.0629   -0.4487 C   0  0  0  0  0  0  0  0  0 35  0  0
   -3.7241   -2.5002   -0.7340 H   0  0  0  0  0  0  0  0  0 40  0  0
   -2.7429   -1.0916    0.5361 C   0  0  0  0  0  0  0  0  0 36  0  0
   -3.8982   -0.7151    1.1299 F   0  0  0  0  0  0  0  0  0 39  0  0
   -1.5715   -0.4917    0.9231 C   0  0  0  0  0  0  0  0  0 37  0  0
   -1.5757    0.2636    1.6969 H   0  0  0  0  0  0  0  0  0 38  0  0
    1.6913   -0.5202    0.0035 H   0  0  0  0  0  0  0  0  0 43  0  0
    1.2978   -0.6114    2.0524 N   0  0  0  0  0  0  0  0  0 20  0  0
    1.7173   -1.9086    2.2888 C   0  0  0  0  0  0  0  0  0 21  0  0
    1.8501   -2.7419    1.4346 O   0  0  0  0  0  0  0  0  0 22  0  0
    2.0219   -2.1275    3.7571 C   0  0  1  0  0  0  0  0  0 23  0  0
    3.5060   -2.4061    3.9669 C   0  0  0  0  0  0  0  0  0 24  0  0
    3.7053   -2.5993    5.0167 H   0  0  0  0  0  0  0  0  0 25  0  0
    3.7841   -3.2820    3.3750 H   0  0  0  0  0  0  0  0  0 26  0  0
    4.1002   -1.5548    3.6485 H   0  0  0  0  0  0  0  0  0 27  0  0
    1.4109   -2.9457    4.1378 H   0  0  0  0  0  0  0  0  0 28  0  0
    1.4919   -0.6101    4.6247 S   0  0  0  0  0  0  0  0  0 29  0  0
    1.1666    0.2167    3.1150 C   0  0  0  0  0  0  0  0  0 30  0  0
    0.8928    1.4580    3.0359 N   0  0  0  0  0  0  0  0  0 31  0  0
    0.6347    4.0017    0.9707 H   0  0  0  0  0  0  0  0  0 44  0  0
   -0.5895    3.6689    2.1760 H   0  0  0  0  0  0  0  0  0 45  0  0
    1.0647    3.9402    2.7086 H   0  0  0  0  0  0  0  0  0 46  0  0
  1  2  1  0
  2  3  2  0
  3  4  1  0
  4  5  2  0
  4  6  1  0
  6  7  1  0
  7  8  1  0
  7  9  1  0
  9 10  1  0
 10 11  1  0
 10 12  1  0
 10 13  1  0
  9 14  1  0
 14 15  1  0
 14 16  1  0
 14 17  1  0
  9 18  1  1
  7 19  1  0
  3 20  1  0
 20 21  1  0
 21 22  4  0
 22 23  1  0
 22 24  4  0
 24 25  1  0
 24 26  4  0
 26 27  1  0
 26 28  4  0
 28 29  1  0
 28 30  4  0
 30 31  1  0
 20 32  1  1
 20 33  1  0
 33 34  1  0
 34 35  2  0
 34 36  1  0
 36 37  1  0
 37 38  1  0
 37 39  1  0
 37 40  1  0
 36 41  1  1
 36 42  1  0
 42 43  1  0
 43 44  2  0
  1 45  1  0
  1 46  1  0
  1 47  1  0
 44  2  1  0
 30 21  4  0
 43 33  1  0
M  END
>  <sample_id>  (543)
train::CC1=C(C(=O)OCC(C)C)C(c2cccc(F)c2)N2C(=O)C(C)SC2=N1__gen0002

>  <partition>  (543)
BAT_EXTERNAL_CONFIRM

>  <method>  (543)
BA_seed193

>  <candidate>  (543)
primary

$$$$
train::Cc1cc(=O)n(-c2ccc(C(=O)O)cc2)[nH]1__gen0000
     RDKit          3D

 26 27  0  0  0  0  0  0  0  0999 V2000
    0.7586   -3.3473   -2.9495 C   0  0  0  0  0  0  0  0  0  0  0  0
    0.8044   -1.9410   -2.4917 C   0  0  0  0  0  0  0  0  0  1  0  0
    1.3254   -0.8241   -3.0905 C   0  0  0  0  0  0  0  0  0  2  0  0
    1.8304   -0.7650   -4.0335 H   0  0  0  0  0  0  0  0  0 22  0  0
    1.0929    0.3119   -2.2340 C   0  0  0  0  0  0  0  0  0  3  0  0
    1.4044    1.4795   -2.3518 O   0  0  0  0  0  0  0  0  0  4  0  0
    0.4192   -0.2195   -1.1216 N   0  0  0  0  0  0  0  0  0  5  0  0
    0.0121    0.4123    0.0504 C   0  0  0  0  0  0  0  0  0  6  0  0
   -0.2161   -0.3340    1.2085 C   0  0  0  0  0  0  0  0  0  7  0  0
   -0.0569   -1.3963    1.2241 H   0  0  0  0  0  0  0  0  0 19  0  0
   -0.6415    0.2991    2.3598 C   0  0  0  0  0  0  0  0  0  8  0  0
   -0.8265   -0.2742    3.2600 H   0  0  0  0  0  0  0  0  0 18  0  0
   -0.8089    1.6829    2.3839 C   0  0  0  0  0  0  0  0  0  9  0  0
   -1.2559    2.3951    3.6005 C   0  0  0  0  0  0  0  0  0 14  0  0
   -1.4172    3.5890    3.6767 O   0  0  0  0  0  0  0  0  0 15  0  0
   -1.4809    1.5742    4.6446 O   0  0  0  0  0  0  0  0  0 16  0  0
   -1.7623    2.1038    5.4060 H   0  0  0  0  0  0  0  0  0 17  0  0
   -0.5625    2.4174    1.2301 C   0  0  0  0  0  0  0  0  0 10  0  0
   -0.6875    3.4906    1.2517 H   0  0  0  0  0  0  0  0  0 13  0  0
   -0.1411    1.7981    0.0712 C   0  0  0  0  0  0  0  0  0 11  0  0
    0.0523    2.3676   -0.8227 H   0  0  0  0  0  0  0  0  0 12  0  0
    0.3351   -1.6051   -1.2624 N   0  0  0  0  0  0  0  0  0 20  0  0
   -0.4380   -2.0842   -0.8129 H   0  0  0  0  0  0  0  0  0 21  0  0
    1.2734   -3.9948   -2.2320 H   0  0  0  0  0  0  0  0  0 23  0  0
    1.2573   -3.4454   -3.9147 H   0  0  0  0  0  0  0  0  0 24  0  0
   -0.2702   -3.6907   -3.0500 H   0  0  0  0  0  0  0  0  0 25  0  0
  1  2  1  0
  2  3  4  0
  3  4  1  0
  3  5  4  0
  5  6  2  0
  5  7  4  0
  7  8  1  0
  8  9  4  0
  9 10  1  0
  9 11  4  0
 11 12  1  0
 11 13  4  0
 13 14  1  0
 14 15  2  0
 14 16  1  0
 16 17  1  0
 13 18  4  0
 18 19  1  0
 18 20  4  0
 20 21  1  0
  7 22  4  0
 22 23  1  0
  1 24  1  0
  1 25  1  0
  1 26  1  0
 22  2  4  0
 20  8  4  0
M  END
>  <sample_id>  (544)
train::Cc1cc(=O)n(-c2ccc(C(=O)O)cc2)[nH]1__gen0000

>  <partition>  (544)
BAT_EXTERNAL_CONFIRM

>  <method>  (544)
BA_seed193

>  <candidate>  (544)
primary

$$$$
train::Cc1cc(=O)n(-c2ccc(C(=O)O)cc2)[nH]1__gen0001
     RDKit          3D

 26 27  0  0  0  0  0  0  0  0999 V2000
    1.1704    3.0046   -3.2364 C   0  0  0  0  0  0  0  0  0  0  0  0
    1.2545    1.7188   -2.4946 C   0  0  0  0  0  0  0  0  0  1  0  0
    2.1120    0.6709   -2.6479 C   0  0  0  0  0  0  0  0  0  2  0  0
    2.9101    0.5684   -3.3445 H   0  0  0  0  0  0  0  0  0 22  0  0
    1.7750   -0.3463   -1.6703 C   0  0  0  0  0  0  0  0  0  3  0  0
    2.2711   -1.4276   -1.4528 O   0  0  0  0  0  0  0  0  0  4  0  0
    0.6928    0.2055   -0.9498 N   0  0  0  0  0  0  0  0  0  5  0  0
    0.0006   -0.3037    0.1586 C   0  0  0  0  0  0  0  0  0  6  0  0
   -0.9487    0.4660    0.8223 C   0  0  0  0  0  0  0  0  0  7  0  0
   -1.1675    1.4764    0.4957 H   0  0  0  0  0  0  0  0  0 19  0  0
   -1.6177   -0.0574    1.8990 C   0  0  0  0  0  0  0  0  0  8  0  0
   -2.3637    0.5295    2.4141 H   0  0  0  0  0  0  0  0  0 18  0  0
   -1.3369   -1.3407    2.3661 C   0  0  0  0  0  0  0  0  0  9  0  0
   -2.0830   -1.8570    3.5175 C   0  0  0  0  0  0  0  0  0 14  0  0
   -2.9290   -1.2378    4.1206 O   0  0  0  0  0  0  0  0  0 15  0  0
   -1.7180   -3.0991    3.8938 O   0  0  0  0  0  0  0  0  0 16  0  0
   -2.2462   -3.3646    4.6539 H   0  0  0  0  0  0  0  0  0 17  0  0
   -0.3667   -2.0963    1.7062 C   0  0  0  0  0  0  0  0  0 10  0  0
   -0.1448   -3.0897    2.0564 H   0  0  0  0  0  0  0  0  0 13  0  0
    0.3039   -1.5863    0.6226 C   0  0  0  0  0  0  0  0  0 11  0  0
    1.0594   -2.1651    0.1152 H   0  0  0  0  0  0  0  0  0 12  0  0
    0.4429    1.4778   -1.4319 N   0  0  0  0  0  0  0  0  0 20  0  0
   -0.5094    1.8418   -1.3951 H   0  0  0  0  0  0  0  0  0 21  0  0
    0.2239    3.0773   -3.7677 H   0  0  0  0  0  0  0  0  0 23  0  0
    2.0045    3.0957   -3.9254 H   0  0  0  0  0  0  0  0  0 24  0  0
    1.2105    3.8390   -2.5254 H   0  0  0  0  0  0  0  0  0 25  0  0
  1  2  1  0
  2  3  4  0
  3  4  1  0
  3  5  4  0
  5  6  2  0
  5  7  4  0
  7  8  1  0
  8  9  4  0
  9 10  1  0
  9 11  4  0
 11 12  1  0
 11 13  4  0
 13 14  1  0
 14 15  2  0
 14 16  1  0
 16 17  1  0
 13 18  4  0
 18 19  1  0
 18 20  4  0
 20 21  1  0
  7 22  4  0
 22 23  1  0
  1 24  1  0
  1 25  1  0
  1 26  1  0
 22  2  4  0
 20  8  4  0
M  END
>  <sample_id>  (545)
train::Cc1cc(=O)n(-c2ccc(C(=O)O)cc2)[nH]1__gen0001

>  <partition>  (545)
BAT_EXTERNAL_CONFIRM

>  <method>  (545)
BA_seed193

>  <candidate>  (545)
primary

$$$$
train::Cc1cc(=O)n(-c2ccc(C(=O)O)cc2)[nH]1__gen0002
     RDKit          3D

 26 27  0  0  0  0  0  0  0  0999 V2000
   -1.5171    3.1611   -2.8922 C   0  0  0  0  0  0  0  0  0  0  0  0
   -0.5865    2.1070   -2.4339 C   0  0  0  0  0  0  0  0  0  1  0  0
    0.5337    1.6134   -3.0215 C   0  0  0  0  0  0  0  0  0  2  0  0
    0.9992    1.9314   -3.9359 H   0  0  0  0  0  0  0  0  0 22  0  0
    1.0818    0.5659   -2.1736 C   0  0  0  0  0  0  0  0  0  3  0  0
    2.0618   -0.1329   -2.3245 O   0  0  0  0  0  0  0  0  0  4  0  0
    0.1754    0.4781   -1.1009 N   0  0  0  0  0  0  0  0  0  5  0  0
    0.2646   -0.2993    0.0550 C   0  0  0  0  0  0  0  0  0  6  0  0
    1.4130   -1.0523    0.2967 C   0  0  0  0  0  0  0  0  0  7  0  0
    2.2193   -1.0333   -0.4242 H   0  0  0  0  0  0  0  0  0 19  0  0
    1.5051   -1.8224    1.4339 C   0  0  0  0  0  0  0  0  0  8  0  0
    2.3924   -2.4154    1.6270 H   0  0  0  0  0  0  0  0  0 18  0  0
    0.4533   -1.8717    2.3480 C   0  0  0  0  0  0  0  0  0  9  0  0
    0.6006   -2.7125    3.5613 C   0  0  0  0  0  0  0  0  0 14  0  0
    1.5916   -3.3673    3.8224 O   0  0  0  0  0  0  0  0  0 15  0  0
   -0.4739   -2.6803    4.3599 O   0  0  0  0  0  0  0  0  0 16  0  0
   -0.3159   -3.2536    5.1309 H   0  0  0  0  0  0  0  0  0 17  0  0
   -0.6814   -1.1135    2.1080 C   0  0  0  0  0  0  0  0  0 10  0  0
   -1.4937   -1.1418    2.8270 H   0  0  0  0  0  0  0  0  0 13  0  0
   -0.7870   -0.3377    0.9822 C   0  0  0  0  0  0  0  0  0 11  0  0
   -1.6751    0.2447    0.8237 H   0  0  0  0  0  0  0  0  0 12  0  0
   -0.7768    1.4576   -1.2506 N   0  0  0  0  0  0  0  0  0 20  0  0
   -1.6862    1.3737   -0.8146 H   0  0  0  0  0  0  0  0  0 21  0  0
   -1.0657    3.7727   -3.6555 H   0  0  0  0  0  0  0  0  0 23  0  0
   -1.7922    3.8131   -2.0513 H   0  0  0  0  0  0  0  0  0 24  0  0
   -2.4402    2.7154   -3.2972 H   0  0  0  0  0  0  0  0  0 25  0  0
  1  2  1  0
  2  3  4  0
  3  4  1  0
  3  5  4  0
  5  6  2  0
  5  7  4  0
  7  8  1  0
  8  9  4  0
  9 10  1  0
  9 11  4  0
 11 12  1  0
 11 13  4  0
 13 14  1  0
 14 15  2  0
 14 16  1  0
 16 17  1  0
 13 18  4  0
 18 19  1  0
 18 20  4  0
 20 21  1  0
  7 22  4  0
 22 23  1  0
  1 24  1  0
  1 25  1  0
  1 26  1  0
 22  2  4  0
 20  8  4  0
M  END
>  <sample_id>  (546)
train::Cc1cc(=O)n(-c2ccc(C(=O)O)cc2)[nH]1__gen0002

>  <partition>  (546)
BAT_EXTERNAL_CONFIRM

>  <method>  (546)
BA_seed193

>  <candidate>  (546)
primary

$$$$
train::O=C(NCCCN1CCOCC1)c1ccc(Cl)c(S(=O)(=O)[NH+]2CCCCCC2)c1__gen0000
     RDKit          3D

 60 62  0  0  0  0  0  0  0  0999 V2000
    2.9934    2.9918   -2.3539 O   0  0  0  0  0  0  0  0  0  0  0  0
    2.7972    2.1443   -1.4983 C   0  0  0  0  0  0  0  0  0  1  0  0
    3.3730    0.9295   -1.5404 N   0  0  0  0  0  0  0  0  0  2  0  0
    3.1404    0.1903   -0.9098 H   0  0  0  0  0  0  0  0  0  3  0  0
    4.2294    0.5353   -2.6441 C   0  0  0  0  0  0  0  0  0  4  0  0
    4.0968   -0.9616   -2.9228 C   0  0  0  0  0  0  0  0  0  5  0  0
    4.4089   -1.5320   -2.0428 H   0  0  0  0  0  0  0  0  0  6  0  0
    4.7732   -1.2242   -3.7476 H   0  0  0  0  0  0  0  0  0  7  0  0
    2.6750   -1.3490   -3.3269 C   0  0  0  0  0  0  0  0  0  8  0  0
    1.7107   -1.3022   -2.2151 N   0  0  0  0  0  0  0  0  0  9  0  0
    1.7468   -2.5071   -1.3993 C   0  0  0  0  0  0  0  0  0 10  0  0
    1.4094   -3.3767   -1.9855 H   0  0  0  0  0  0  0  0  0 11  0  0
    2.7782   -2.6872   -1.0740 H   0  0  0  0  0  0  0  0  0 22  0  0
    0.8463   -2.2979   -0.1883 C   0  0  0  0  0  0  0  0  0 12  0  0
    1.2865   -1.5356    0.4482 H   0  0  0  0  0  0  0  0  0 20  0  0
    0.7355   -3.2150    0.3841 H   0  0  0  0  0  0  0  0  0 21  0  0
   -0.4754   -1.9332   -0.5684 O   0  0  0  0  0  0  0  0  0 13  0  0
   -0.5333   -0.8577   -1.4422 C   0  0  0  0  0  0  0  0  0 14  0  0
   -1.5674   -0.7687   -1.7391 H   0  0  0  0  0  0  0  0  0 15  0  0
   -0.1823    0.0641   -0.9527 H   0  0  0  0  0  0  0  0  0 19  0  0
    0.3444   -1.0832   -2.6779 C   0  0  0  0  0  0  0  0  0 16  0  0
   -0.0138   -1.9447   -3.2553 H   0  0  0  0  0  0  0  0  0 17  0  0
    0.3433   -0.1821   -3.3032 H   0  0  0  0  0  0  0  0  0 18  0  0
    2.6741   -2.3605   -3.7941 H   0  0  0  0  0  0  0  0  0 23  0  0
    2.3465   -0.6512   -4.0975 H   0  0  0  0  0  0  0  0  0 24  0  0
    3.9452    1.1304   -3.5037 H   0  0  0  0  0  0  0  0  0 25  0  0
    5.2724    0.7640   -2.3894 H   0  0  0  0  0  0  0  0  0 26  0  0
    1.9153    2.4349   -0.3277 C   0  0  0  0  0  0  0  0  0 27  0  0
    1.4383    1.4791    0.5673 C   0  0  0  0  0  0  0  0  0 28  0  0
    1.6975    0.4456    0.4608 H   0  0  0  0  0  0  0  0  0 59  0  0
    0.5901    1.8366    1.5882 C   0  0  0  0  0  0  0  0  0 29  0  0
   -0.0528    0.4671    2.6266 S   0  0  2  0  0  6  0  0  0 36  0  0
   -0.5149    0.9292    3.8939 O   0  0  0  0  0  0  0  0  0 37  0  0
    0.8843   -0.6018    2.5215 O   0  0  0  0  0  0  0  0  0 38  0  0
   -1.5110   -0.0504    1.6251 N   0  0  2  0  0  0  0  0  0 39  0  0
   -1.1246   -0.1431    0.6732 H   0  0  0  0  0  0  0  0  0 40  0  0
   -2.4875    1.0017    1.3701 C   0  0  0  0  0  0  0  0  0 41  0  0
   -1.9678    1.9595    1.4330 H   0  0  0  0  0  0  0  0  0 57  0  0
   -2.8531    0.8721    0.3577 H   0  0  0  0  0  0  0  0  0 58  0  0
   -3.6641    1.0498    2.3458 C   0  0  0  0  0  0  0  0  0 42  0  0
   -4.0761    2.0509    2.3198 H   0  0  0  0  0  0  0  0  0 43  0  0
   -3.3338    0.8384    3.3658 H   0  0  0  0  0  0  0  0  0 56  0  0
   -4.7762    0.0471    1.9745 C   0  0  0  0  0  0  0  0  0 44  0  0
   -5.0057    0.1661    0.9235 H   0  0  0  0  0  0  0  0  0 45  0  0
   -5.6702    0.3237    2.5420 H   0  0  0  0  0  0  0  0  0 46  0  0
   -4.4361   -1.4061    2.2788 C   0  0  0  0  0  0  0  0  0 47  0  0
   -5.3070   -1.9846    2.0077 H   0  0  0  0  0  0  0  0  0 48  0  0
   -4.2852   -1.5412    3.3442 H   0  0  0  0  0  0  0  0  0 49  0  0
   -3.1836   -1.9363    1.5711 C   0  0  0  0  0  0  0  0  0 50  0  0
   -3.2489   -1.7360    0.5013 H   0  0  0  0  0  0  0  0  0 51  0  0
   -3.1380   -3.0157    1.7090 H   0  0  0  0  0  0  0  0  0 55  0  0
   -1.8757   -1.3731    2.1376 C   0  0  0  0  0  0  0  0  0 52  0  0
   -1.0770   -2.0604    1.8832 H   0  0  0  0  0  0  0  0  0 53  0  0
   -1.9797   -1.3153    3.2282 H   0  0  0  0  0  0  0  0  0 54  0  0
    0.2154    3.1429    1.7762 C   0  0  0  0  0  0  0  0  0 30  0  0
   -0.8147    3.6232    3.0716 Cl  0  0  0  0  0  0  0  0  0 35  0  0
    0.6883    4.1183    0.9062 C   0  0  0  0  0  0  0  0  0 31  0  0
    0.4041    5.1423    1.0350 H   0  0  0  0  0  0  0  0  0 34  0  0
    1.5158    3.7591   -0.1371 C   0  0  0  0  0  0  0  0  0 32  0  0
    1.8797    4.4963   -0.8343 H   0  0  0  0  0  0  0  0  0 33  0  0
  1  2  2  0
  2  3  1  0
  3  4  1  0
  3  5  1  0
  5  6  1  0
  6  7  1  0
  6  8  1  0
  6  9  1  0
  9 10  1  0
 10 11  1  0
 11 12  1  0
 11 13  1  0
 11 14  1  0
 14 15  1  0
 14 16  1  0
 14 17  1  0
 17 18  1  0
 18 19  1  0
 18 20  1  0
 18 21  1  0
 21 22  1  0
 21 23  1  0
  9 24  1  0
  9 25  1  0
  5 26  1  0
  5 27  1  0
  2 28  1  0
 28 29  4  0
 29 30  1  0
 29 31  4  0
 32 31  1  6
 32 33  2  0
 32 34  2  0
 32 35  1  0
 35 36  1  6
 35 37  1  0
 37 38  1  0
 37 39  1  0
 37 40  1  0
 40 41  1  0
 40 42  1  0
 40 43  1  0
 43 44  1  0
 43 45  1  0
 43 46  1  0
 46 47  1  0
 46 48  1  0
 46 49  1  0
 49 50  1  0
 49 51  1  0
 49 52  1  0
 52 53  1  0
 52 54  1  0
 31 55  4  0
 55 56  1  0
 55 57  4  0
 57 58  1  0
 57 59  4  0
 59 60  1  0
 21 10  1  0
 59 28  4  0
 52 35  1  0
M  CHG  1  35   1
M  END
>  <sample_id>  (547)
train::O=C(NCCCN1CCOCC1)c1ccc(Cl)c(S(=O)(=O)[NH+]2CCCCCC2)c1__gen0000

>  <partition>  (547)
BAT_EXTERNAL_CONFIRM

>  <method>  (547)
BA_seed193

>  <candidate>  (547)
primary

$$$$
train::O=C(NCCCN1CCOCC1)c1ccc(Cl)c(S(=O)(=O)[NH+]2CCCCCC2)c1__gen0001
     RDKit          3D

 60 62  0  0  0  0  0  0  0  0999 V2000
   -2.4185   -3.3849    0.9356 O   0  0  0  0  0  0  0  0  0  0  0  0
   -1.5397   -2.6610    0.4859 C   0  0  0  0  0  0  0  0  0  1  0  0
   -1.6720   -1.9587   -0.6468 N   0  0  0  0  0  0  0  0  0  2  0  0
   -0.9405   -1.4543   -1.1231 H   0  0  0  0  0  0  0  0  0  3  0  0
   -2.8776   -2.0452   -1.4549 C   0  0  0  0  0  0  0  0  0  4  0  0
   -2.5342   -2.0552   -2.9336 C   0  0  0  0  0  0  0  0  0  5  0  0
   -3.4382   -2.1812   -3.5098 H   0  0  0  0  0  0  0  0  0  6  0  0
   -1.8718   -2.8892   -3.1500 H   0  0  0  0  0  0  0  0  0  7  0  0
   -1.8748   -0.7413   -3.3713 C   0  0  0  0  0  0  0  0  0  8  0  0
   -0.5310   -0.5337   -2.7969 N   0  0  0  0  0  0  0  0  0  9  0  0
    0.4676   -1.3286   -3.5074 C   0  0  0  0  0  0  0  0  0 10  0  0
    0.2014   -2.3878   -3.4360 H   0  0  0  0  0  0  0  0  0 11  0  0
    0.4995   -1.0458   -4.5618 H   0  0  0  0  0  0  0  0  0 22  0  0
    1.8422   -1.1054   -2.8984 C   0  0  0  0  0  0  0  0  0 12  0  0
    2.5923   -1.6306   -3.4896 H   0  0  0  0  0  0  0  0  0 20  0  0
    1.8800   -1.4795   -1.8699 H   0  0  0  0  0  0  0  0  0 21  0  0
    2.1975    0.2611   -2.9320 O   0  0  0  0  0  0  0  0  0 13  0  0
    1.2522    1.0392   -2.2739 C   0  0  0  0  0  0  0  0  0 14  0  0
    1.2352    0.7668   -1.2178 H   0  0  0  0  0  0  0  0  0 15  0  0
    1.5723    2.0831   -2.3822 H   0  0  0  0  0  0  0  0  0 19  0  0
   -0.1479    0.8755   -2.8590 C   0  0  0  0  0  0  0  0  0 16  0  0
   -0.1489    1.2338   -3.8990 H   0  0  0  0  0  0  0  0  0 17  0  0
   -0.8625    1.4541   -2.2661 H   0  0  0  0  0  0  0  0  0 18  0  0
   -1.8498   -0.6939   -4.4709 H   0  0  0  0  0  0  0  0  0 23  0  0
   -2.5094    0.0904   -3.0319 H   0  0  0  0  0  0  0  0  0 24  0  0
   -3.4029   -2.9603   -1.1677 H   0  0  0  0  0  0  0  0  0 25  0  0
   -3.5372   -1.2017   -1.2242 H   0  0  0  0  0  0  0  0  0 26  0  0
   -0.2686   -2.4594    1.2467 C   0  0  0  0  0  0  0  0  0 27  0  0
    0.6307   -1.4478    1.0122 C   0  0  0  0  0  0  0  0  0 28  0  0
    0.4878   -0.7379    0.2190 H   0  0  0  0  0  0  0  0  0 59  0  0
    1.7185   -1.2485    1.8624 C   0  0  0  0  0  0  0  0  0 29  0  0
    2.6378    0.2676    1.5569 S   0  0  2  0  0  6  0  0  0 36  0  0
    2.9838    0.2883    0.1684 O   0  0  0  0  0  0  0  0  0 37  0  0
    3.5823    0.5438    2.5742 O   0  0  0  0  0  0  0  0  0 38  0  0
    1.2065    1.4024    1.6697 N   0  0  2  0  0  0  0  0  0 39  0  0
    0.6030    0.9995    0.8921 H   0  0  0  0  0  0  0  0  0 40  0  0
    1.5196    2.7638    1.2703 C   0  0  0  0  0  0  0  0  0 41  0  0
    2.3750    2.7117    0.6111 H   0  0  0  0  0  0  0  0  0 57  0  0
    1.8182    3.3145    2.1752 H   0  0  0  0  0  0  0  0  0 58  0  0
    0.3384    3.4925    0.5677 C   0  0  0  0  0  0  0  0  0 42  0  0
    0.3895    3.3364   -0.5125 H   0  0  0  0  0  0  0  0  0 43  0  0
    0.5084    4.5547    0.7570 H   0  0  0  0  0  0  0  0  0 56  0  0
   -1.0701    3.0535    1.0005 C   0  0  0  0  0  0  0  0  0 44  0  0
   -1.7513    3.8017    0.5852 H   0  0  0  0  0  0  0  0  0 45  0  0
   -1.3247    2.1055    0.5746 H   0  0  0  0  0  0  0  0  0 46  0  0
   -1.2753    2.9474    2.5041 C   0  0  0  0  0  0  0  0  0 47  0  0
   -0.7143    3.7487    3.0081 H   0  0  0  0  0  0  0  0  0 48  0  0
   -2.3012    3.0851    2.7387 H   0  0  0  0  0  0  0  0  0 49  0  0
   -0.8449    1.6139    3.0806 C   0  0  0  0  0  0  0  0  0 50  0  0
   -1.3386    0.8027    2.5316 H   0  0  0  0  0  0  0  0  0 51  0  0
   -1.1617    1.5285    4.1207 H   0  0  0  0  0  0  0  0  0 55  0  0
    0.6637    1.3942    3.0366 C   0  0  0  0  0  0  0  0  0 52  0  0
    1.1321    2.1899    3.6172 H   0  0  0  0  0  0  0  0  0 53  0  0
    0.9482    0.4400    3.4738 H   0  0  0  0  0  0  0  0  0 54  0  0
    1.9457   -2.1133    2.9241 C   0  0  0  0  0  0  0  0  0 30  0  0
    3.2892   -1.8736    3.9701 Cl  0  0  0  0  0  0  0  0  0 35  0  0
    1.1008   -3.1857    3.1126 C   0  0  0  0  0  0  0  0  0 31  0  0
    1.2770   -3.8730    3.9312 H   0  0  0  0  0  0  0  0  0 34  0  0
   -0.0019   -3.3573    2.3044 C   0  0  0  0  0  0  0  0  0 32  0  0
   -0.6868   -4.1554    2.4684 H   0  0  0  0  0  0  0  0  0 33  0  0
  1  2  2  0
  2  3  1  0
  3  4  1  0
  3  5  1  0
  5  6  1  0
  6  7  1  0
  6  8  1  0
  6  9  1  0
  9 10  1  0
 10 11  1  0
 11 12  1  0
 11 13  1  0
 11 14  1  0
 14 15  1  0
 14 16  1  0
 14 17  1  0
 17 18  1  0
 18 19  1  0
 18 20  1  0
 18 21  1  0
 21 22  1  0
 21 23  1  0
  9 24  1  0
  9 25  1  0
  5 26  1  0
  5 27  1  0
  2 28  1  0
 28 29  4  0
 29 30  1  0
 29 31  4  0
 32 31  1  1
 32 33  2  0
 32 34  2  0
 32 35  1  0
 35 36  1  6
 35 37  1  0
 37 38  1  0
 37 39  1  0
 37 40  1  0
 40 41  1  0
 40 42  1  0
 40 43  1  0
 43 44  1  0
 43 45  1  0
 43 46  1  0
 46 47  1  0
 46 48  1  0
 46 49  1  0
 49 50  1  0
 49 51  1  0
 49 52  1  0
 52 53  1  0
 52 54  1  0
 31 55  4  0
 55 56  1  0
 55 57  4  0
 57 58  1  0
 57 59  4  0
 59 60  1  0
 21 10  1  0
 59 28  4  0
 52 35  1  0
M  CHG  1  35   1
M  END
>  <sample_id>  (548)
train::O=C(NCCCN1CCOCC1)c1ccc(Cl)c(S(=O)(=O)[NH+]2CCCCCC2)c1__gen0001

>  <partition>  (548)
BAT_EXTERNAL_CONFIRM

>  <method>  (548)
BA_seed193

>  <candidate>  (548)
primary

$$$$
train::O=C(NCCCN1CCOCC1)c1ccc(Cl)c(S(=O)(=O)[NH+]2CCCCCC2)c1__gen0002
     RDKit          3D

 60 62  0  0  0  0  0  0  0  0999 V2000
    1.5189   -2.3500   -2.9495 O   0  0  0  0  0  0  0  0  0  0  0  0
    1.1311   -2.1555   -1.8112 C   0  0  0  0  0  0  0  0  0  1  0  0
    0.0653   -2.7366   -1.2666 N   0  0  0  0  0  0  0  0  0  2  0  0
   -0.2867   -2.6426   -0.3237 H   0  0  0  0  0  0  0  0  0  3  0  0
   -0.7601   -3.6390   -2.0405 C   0  0  0  0  0  0  0  0  0  4  0  0
   -2.1914   -3.5917   -1.5547 C   0  0  0  0  0  0  0  0  0  5  0  0
   -2.8309   -4.1111   -2.2670 H   0  0  0  0  0  0  0  0  0  6  0  0
   -2.5142   -2.5621   -1.4548 H   0  0  0  0  0  0  0  0  0  7  0  0
   -2.3553   -4.3016   -0.1852 C   0  0  0  0  0  0  0  0  0  8  0  0
   -1.7451   -3.5105    0.9069 N   0  0  0  0  0  0  0  0  0  9  0  0
   -0.6468   -4.1947    1.5648 C   0  0  0  0  0  0  0  0  0 10  0  0
    0.1159   -4.4456    0.8243 H   0  0  0  0  0  0  0  0  0 11  0  0
   -0.9663   -5.1401    2.0421 H   0  0  0  0  0  0  0  0  0 22  0  0
   -0.0414   -3.2814    2.6359 C   0  0  0  0  0  0  0  0  0 12  0  0
    0.3616   -2.3754    2.1395 H   0  0  0  0  0  0  0  0  0 20  0  0
    0.7483   -3.8079    3.1773 H   0  0  0  0  0  0  0  0  0 21  0  0
   -1.0147   -2.9064    3.5900 O   0  0  0  0  0  0  0  0  0 13  0  0
   -2.1039   -2.2787    2.9698 C   0  0  0  0  0  0  0  0  0 14  0  0
   -1.7372   -1.3426    2.5079 H   0  0  0  0  0  0  0  0  0 15  0  0
   -2.8094   -2.0448    3.7550 H   0  0  0  0  0  0  0  0  0 19  0  0
   -2.7410   -3.1705    1.9141 C   0  0  0  0  0  0  0  0  0 16  0  0
   -3.1568   -4.0732    2.3948 H   0  0  0  0  0  0  0  0  0 17  0  0
   -3.5632   -2.6403    1.4344 H   0  0  0  0  0  0  0  0  0 18  0  0
   -1.8914   -5.2895   -0.2475 H   0  0  0  0  0  0  0  0  0 23  0  0
   -3.4108   -4.4539    0.0028 H   0  0  0  0  0  0  0  0  0 24  0  0
   -0.7051   -3.3317   -3.0919 H   0  0  0  0  0  0  0  0  0 25  0  0
   -0.3765   -4.6680   -1.9929 H   0  0  0  0  0  0  0  0  0 26  0  0
    1.8441   -1.1644   -0.9437 C   0  0  0  0  0  0  0  0  0 27  0  0
    1.1565   -0.2984   -0.1273 C   0  0  0  0  0  0  0  0  0 28  0  0
    0.0899   -0.3273   -0.0326 H   0  0  0  0  0  0  0  0  0 59  0  0
    1.8316    0.6731    0.5700 C   0  0  0  0  0  0  0  0  0 29  0  0
    0.7807    1.8446    1.4442 S   0  0  2  0  0  6  0  0  0 36  0  0
    1.5260    2.4603    2.4995 O   0  0  0  0  0  0  0  0  0 37  0  0
   -0.4697    1.2388    1.7048 O   0  0  0  0  0  0  0  0  0 38  0  0
    0.4799    3.1604    0.2455 N   0  0  2  0  0  0  0  0  0 39  0  0
   -0.1702    3.7475    0.8087 H   0  0  0  0  0  0  0  0  0 40  0  0
   -0.1638    2.6972   -0.9949 C   0  0  0  0  0  0  0  0  0 41  0  0
    0.6236    2.5112   -1.7243 H   0  0  0  0  0  0  0  0  0 57  0  0
   -0.6599    1.7548   -0.7617 H   0  0  0  0  0  0  0  0  0 58  0  0
   -1.1903    3.6908   -1.5574 C   0  0  0  0  0  0  0  0  0 42  0  0
   -1.1461    3.6308   -2.6498 H   0  0  0  0  0  0  0  0  0 43  0  0
   -2.2006    3.3934   -1.2705 H   0  0  0  0  0  0  0  0  0 56  0  0
   -1.0234    5.1414   -1.1059 C   0  0  0  0  0  0  0  0  0 44  0  0
   -1.2074    5.2616   -0.0442 H   0  0  0  0  0  0  0  0  0 45  0  0
   -1.7648    5.7446   -1.6457 H   0  0  0  0  0  0  0  0  0 46  0  0
    0.3862    5.7156   -1.3736 C   0  0  0  0  0  0  0  0  0 47  0  0
    0.7798    5.3950   -2.3150 H   0  0  0  0  0  0  0  0  0 48  0  0
    0.2706    6.8035   -1.4291 H   0  0  0  0  0  0  0  0  0 49  0  0
    1.3954    5.4100   -0.2707 C   0  0  0  0  0  0  0  0  0 50  0  0
    1.0504    5.7797    0.6931 H   0  0  0  0  0  0  0  0  0 51  0  0
    2.3390    5.9200   -0.4918 H   0  0  0  0  0  0  0  0  0 55  0  0
    1.6771    3.9094   -0.1104 C   0  0  0  0  0  0  0  0  0 52  0  0
    2.0897    3.5082   -1.0379 H   0  0  0  0  0  0  0  0  0 53  0  0
    2.4102    3.7302    0.6829 H   0  0  0  0  0  0  0  0  0 54  0  0
    3.2194    0.7721    0.5017 C   0  0  0  0  0  0  0  0  0 30  0  0
    4.0739    1.9354    1.4287 Cl  0  0  0  0  0  0  0  0  0 35  0  0
    3.9161   -0.1269   -0.2980 C   0  0  0  0  0  0  0  0  0 31  0  0
    4.9854   -0.0576   -0.3583 H   0  0  0  0  0  0  0  0  0 34  0  0
    3.2268   -1.0687   -1.0215 C   0  0  0  0  0  0  0  0  0 32  0  0
    3.7513   -1.7410   -1.6890 H   0  0  0  0  0  0  0  0  0 33  0  0
  1  2  2  0
  2  3  1  0
  3  4  1  0
  3  5  1  0
  5  6  1  0
  6  7  1  0
  6  8  1  0
  6  9  1  0
  9 10  1  0
 10 11  1  0
 11 12  1  0
 11 13  1  0
 11 14  1  0
 14 15  1  0
 14 16  1  0
 14 17  1  0
 17 18  1  0
 18 19  1  0
 18 20  1  0
 18 21  1  0
 21 22  1  0
 21 23  1  0
  9 24  1  0
  9 25  1  0
  5 26  1  0
  5 27  1  0
  2 28  1  0
 28 29  4  0
 29 30  1  0
 29 31  4  0
 32 31  1  6
 32 33  2  0
 32 34  2  0
 32 35  1  0
 35 36  1  1
 35 37  1  0
 37 38  1  0
 37 39  1  0
 37 40  1  0
 40 41  1  0
 40 42  1  0
 40 43  1  0
 43 44  1  0
 43 45  1  0
 43 46  1  0
 46 47  1  0
 46 48  1  0
 46 49  1  0
 49 50  1  0
 49 51  1  0
 49 52  1  0
 52 53  1  0
 52 54  1  0
 31 55  4  0
 55 56  1  0
 55 57  4  0
 57 58  1  0
 57 59  4  0
 59 60  1  0
 21 10  1  0
 59 28  4  0
 52 35  1  0
M  CHG  1  35   1
M  END
>  <sample_id>  (549)
train::O=C(NCCCN1CCOCC1)c1ccc(Cl)c(S(=O)(=O)[NH+]2CCCCCC2)c1__gen0002

>  <partition>  (549)
BAT_EXTERNAL_CONFIRM

>  <method>  (549)
BA_seed193

>  <candidate>  (549)
primary

$$$$
train::Cc1cccc2sc(NC(=O)CN(C)S(=O)(=O)c3ccc(Br)s3)nc12__gen0000
     RDKit          3D

 39 41  0  0  0  0  0  0  0  0999 V2000
    1.0328    0.6384   -2.7883 C   0  0  0  0  0  0  0  0  0  0  0  0
    1.5716   -0.7450   -2.8683 C   0  0  0  0  0  0  0  0  0  1  0  0
    2.3286   -1.1568   -3.9488 C   0  0  0  0  0  0  0  0  0  2  0  0
    2.5002   -0.4345   -4.7378 H   0  0  0  0  0  0  0  0  0 35  0  0
    2.8773   -2.4233   -4.0563 C   0  0  0  0  0  0  0  0  0  3  0  0
    3.4692   -2.6820   -4.9186 H   0  0  0  0  0  0  0  0  0 34  0  0
    2.7123   -3.3404   -3.0494 C   0  0  0  0  0  0  0  0  0  4  0  0
    3.1433   -4.3315   -3.1150 H   0  0  0  0  0  0  0  0  0 33  0  0
    1.9552   -2.9572   -1.9548 C   0  0  0  0  0  0  0  0  0  5  0  0
    1.3576   -1.6901   -1.8379 C   0  0  0  0  0  0  0  0  0  6  0  0
    0.6400   -1.4833   -0.6993 N   0  0  0  0  0  0  0  0  0  7  0  0
    0.6561   -2.5243    0.0660 C   0  0  0  0  0  0  0  0  0  8  0  0
    0.0396   -2.6793    1.2638 N   0  0  0  0  0  0  0  0  0  9  0  0
   -0.8878   -1.9212    1.9228 C   0  0  0  0  0  0  0  0  0 10  0  0
   -1.3455   -2.3042    2.9792 O   0  0  0  0  0  0  0  0  0 11  0  0
   -1.3090   -0.6115    1.2850 C   0  0  0  0  0  0  0  0  0 12  0  0
   -0.2130    0.3541    1.2348 N   0  0  0  0  0  0  0  0  0 13  0  0
   -0.6347    1.7069    0.3400 S   0  0  2  0  0  6  0  0  0 14  0  0
   -1.4815    1.2870   -0.7344 O   0  0  0  0  0  0  0  0  0 15  0  0
    0.5455    2.4548    0.0231 O   0  0  0  0  0  0  0  0  0 16  0  0
   -1.6447    2.6685    1.4323 C   0  0  0  0  0  0  0  0  0 17  0  0
   -2.9890    2.6180    1.5923 C   0  0  0  0  0  0  0  0  0 18  0  0
   -3.6199    2.0020    0.9718 H   0  0  0  0  0  0  0  0  0 24  0  0
   -3.4607    3.4669    2.6137 C   0  0  0  0  0  0  0  0  0 19  0  0
   -4.4939    3.5692    2.8866 H   0  0  0  0  0  0  0  0  0 23  0  0
   -2.4411    4.1337    3.2113 C   0  0  0  0  0  0  0  0  0 20  0  0
   -2.5862    5.3652    4.6175 Br  0  0  0  0  0  0  0  0  0 22  0  0
   -0.8824    3.7632    2.5332 S   0  0  0  0  0  0  0  0  0 21  0  0
    0.4766    0.6204    2.4387 C   0  0  0  0  0  0  0  0  0 25  0  0
   -0.1746    1.1126    3.1909 H   0  0  0  0  0  0  0  0  0 26  0  0
    0.7907   -0.3069    2.8906 H   0  0  0  0  0  0  0  0  0 27  0  0
    1.3211    1.2640    2.2192 H   0  0  0  0  0  0  0  0  0 28  0  0
   -2.1731   -0.2167    1.8411 H   0  0  0  0  0  0  0  0  0 29  0  0
   -1.6053   -0.7796    0.2421 H   0  0  0  0  0  0  0  0  0 30  0  0
    0.2669   -3.5432    1.7582 H   0  0  0  0  0  0  0  0  0 31  0  0
    1.6020   -3.8827   -0.5424 S   0  0  0  0  0  0  0  0  0 32  0  0
    1.8106    1.3651   -2.9922 H   0  0  0  0  0  0  0  0  0 36  0  0
    0.2201    0.7663   -3.5035 H   0  0  0  0  0  0  0  0  0 37  0  0
    0.6248    0.8575   -1.8072 H   0  0  0  0  0  0  0  0  0 38  0  0
  1  2  1  0
  2  3  4  0
  3  4  1  0
  3  5  4  0
  5  6  1  0
  5  7  4  0
  7  8  1  0
  7  9  4  0
  9 10  4  0
 10 11  4  0
 11 12  4  0
 12 13  1  0
 13 14  1  0
 14 15  2  0
 14 16  1  0
 16 17  1  0
 18 17  1  1
 18 19  2  0
 18 20  2  0
 18 21  1  0
 21 22  4  0
 22 23  1  0
 22 24  4  0
 24 25  1  0
 24 26  4  0
 26 27  1  0
 26 28  4  0
 17 29  1  0
 29 30  1  0
 29 31  1  0
 29 32  1  0
 16 33  1  0
 16 34  1  0
 13 35  1  0
 12 36  4  0
  1 37  1  0
  1 38  1  0
  1 39  1  0
 10  2  4  0
 28 21  4  0
 36  9  4  0
M  END
>  <sample_id>  (550)
train::Cc1cccc2sc(NC(=O)CN(C)S(=O)(=O)c3ccc(Br)s3)nc12__gen0000

>  <partition>  (550)
BAT_EXTERNAL_CONFIRM

>  <method>  (550)
BA_seed193

>  <candidate>  (550)
primary

$$$$
train::Cc1cccc2sc(NC(=O)CN(C)S(=O)(=O)c3ccc(Br)s3)nc12__gen0001
     RDKit          3D

 39 41  0  0  0  0  0  0  0  0999 V2000
    0.2029    0.7802   -3.3609 C   0  0  0  0  0  0  0  0  0  0  0  0
    1.4794    0.2335   -2.8405 C   0  0  0  0  0  0  0  0  0  1  0  0
    2.4471   -0.3692   -3.6282 C   0  0  0  0  0  0  0  0  0  2  0  0
    2.2724   -0.4323   -4.6946 H   0  0  0  0  0  0  0  0  0 35  0  0
    3.6196   -0.9020   -3.1050 C   0  0  0  0  0  0  0  0  0  3  0  0
    4.3446   -1.3562   -3.7670 H   0  0  0  0  0  0  0  0  0 34  0  0
    3.8736   -0.8535   -1.7510 C   0  0  0  0  0  0  0  0  0  4  0  0
    4.7862   -1.2616   -1.3374 H   0  0  0  0  0  0  0  0  0 33  0  0
    2.9356   -0.2660   -0.9216 C   0  0  0  0  0  0  0  0  0  5  0  0
    1.7442    0.2787   -1.4499 C   0  0  0  0  0  0  0  0  0  6  0  0
    0.9054    0.8381   -0.5360 N   0  0  0  0  0  0  0  0  0  7  0  0
    1.3583    0.7153    0.6443 C   0  0  0  0  0  0  0  0  0  8  0  0
    0.7082    1.0990    1.8050 N   0  0  0  0  0  0  0  0  0  9  0  0
   -0.5882    1.4679    2.0153 C   0  0  0  0  0  0  0  0  0 10  0  0
   -0.9866    1.5285    3.1620 O   0  0  0  0  0  0  0  0  0 11  0  0
   -1.4741    1.7465    0.8020 C   0  0  0  0  0  0  0  0  0 12  0  0
   -2.7442    1.0892    0.8966 N   0  0  0  0  0  0  0  0  0 13  0  0
   -2.7602   -0.4800    0.3691 S   0  0  2  0  0  6  0  0  0 14  0  0
   -2.3347   -0.4906   -1.0023 O   0  0  0  0  0  0  0  0  0 15  0  0
   -4.0376   -1.0425    0.6961 O   0  0  0  0  0  0  0  0  0 16  0  0
   -1.5121   -1.3186    1.3132 C   0  0  0  0  0  0  0  0  0 17  0  0
   -0.3830   -1.8925    0.8256 C   0  0  0  0  0  0  0  0  0 18  0  0
   -0.1555   -1.9354   -0.2254 H   0  0  0  0  0  0  0  0  0 24  0  0
    0.4380   -2.4182    1.8508 C   0  0  0  0  0  0  0  0  0 19  0  0
    1.3645   -2.9292    1.6882 H   0  0  0  0  0  0  0  0  0 23  0  0
   -0.1043   -2.1959    3.0805 C   0  0  0  0  0  0  0  0  0 20  0  0
    0.6682   -2.6856    4.7195 Br  0  0  0  0  0  0  0  0  0 22  0  0
   -1.6340   -1.3591    3.0244 S   0  0  0  0  0  0  0  0  0 21  0  0
   -3.7212    1.5691    1.8521 C   0  0  0  0  0  0  0  0  0 25  0  0
   -4.5495    0.8592    1.8286 H   0  0  0  0  0  0  0  0  0 26  0  0
   -4.0577    2.5441    1.5525 H   0  0  0  0  0  0  0  0  0 27  0  0
   -3.2999    1.6120    2.8649 H   0  0  0  0  0  0  0  0  0 28  0  0
   -0.9815    1.3916   -0.1188 H   0  0  0  0  0  0  0  0  0 29  0  0
   -1.6271    2.8278    0.7378 H   0  0  0  0  0  0  0  0  0 30  0  0
    1.2365    0.9265    2.6582 H   0  0  0  0  0  0  0  0  0 31  0  0
    2.9326   -0.0879    0.8028 S   0  0  0  0  0  0  0  0  0 32  0  0
    0.1952    1.8619   -3.2589 H   0  0  0  0  0  0  0  0  0 36  0  0
   -0.6303    0.3836   -2.7828 H   0  0  0  0  0  0  0  0  0 37  0  0
    0.0693    0.5235   -4.4091 H   0  0  0  0  0  0  0  0  0 38  0  0
  1  2  1  0
  2  3  4  0
  3  4  1  0
  3  5  4  0
  5  6  1  0
  5  7  4  0
  7  8  1  0
  7  9  4  0
  9 10  4  0
 10 11  4  0
 11 12  4  0
 12 13  1  0
 13 14  1  0
 14 15  2  0
 14 16  1  0
 16 17  1  0
 18 17  1  1
 18 19  2  0
 18 20  2  0
 18 21  1  0
 21 22  4  0
 22 23  1  0
 22 24  4  0
 24 25  1  0
 24 26  4  0
 26 27  1  0
 26 28  4  0
 17 29  1  0
 29 30  1  0
 29 31  1  0
 29 32  1  0
 16 33  1  0
 16 34  1  0
 13 35  1  0
 12 36  4  0
  1 37  1  0
  1 38  1  0
  1 39  1  0
 10  2  4  0
 28 21  4  0
 36  9  4  0
M  END
>  <sample_id>  (551)
train::Cc1cccc2sc(NC(=O)CN(C)S(=O)(=O)c3ccc(Br)s3)nc12__gen0001

>  <partition>  (551)
BAT_EXTERNAL_CONFIRM

>  <method>  (551)
BA_seed193

>  <candidate>  (551)
primary

$$$$
train::Cc1cccc2sc(NC(=O)CN(C)S(=O)(=O)c3ccc(Br)s3)nc12__gen0002
     RDKit          3D

 39 41  0  0  0  0  0  0  0  0999 V2000
   -1.6815   -1.1493   -2.5934 C   0  0  0  0  0  0  0  0  0  0  0  0
   -0.6958   -1.9537   -1.8263 C   0  0  0  0  0  0  0  0  0  1  0  0
    0.0708   -2.9714   -2.3755 C   0  0  0  0  0  0  0  0  0  2  0  0
   -0.0189   -3.1551   -3.4313 H   0  0  0  0  0  0  0  0  0 35  0  0
    0.9609   -3.7165   -1.6099 C   0  0  0  0  0  0  0  0  0  3  0  0
    1.5441   -4.4816   -2.0969 H   0  0  0  0  0  0  0  0  0 34  0  0
    1.1103   -3.4986   -0.2526 C   0  0  0  0  0  0  0  0  0  4  0  0
    1.8026   -4.0804    0.3322 H   0  0  0  0  0  0  0  0  0 33  0  0
    0.3610   -2.4888    0.3203 C   0  0  0  0  0  0  0  0  0  5  0  0
   -0.5303   -1.7156   -0.4482 C   0  0  0  0  0  0  0  0  0  6  0  0
   -1.1836   -0.7323    0.2533 N   0  0  0  0  0  0  0  0  0  7  0  0
   -0.8659   -0.7394    1.4929 C   0  0  0  0  0  0  0  0  0  8  0  0
   -1.3704    0.0973    2.4604 N   0  0  0  0  0  0  0  0  0  9  0  0
   -2.0395    1.2860    2.3417 C   0  0  0  0  0  0  0  0  0 10  0  0
   -2.5428    1.7818    3.3259 O   0  0  0  0  0  0  0  0  0 11  0  0
   -1.9913    1.9691    0.9854 C   0  0  0  0  0  0  0  0  0 12  0  0
   -0.6522    2.4786    0.7805 N   0  0  0  0  0  0  0  0  0 13  0  0
    0.0308    2.3771   -0.7322 S   0  0  2  0  0  6  0  0  0 14  0  0
    0.6771    3.6109   -1.0616 O   0  0  0  0  0  0  0  0  0 15  0  0
   -0.9037    1.8150   -1.6628 O   0  0  0  0  0  0  0  0  0 16  0  0
    1.3077    1.1755   -0.4069 C   0  0  0  0  0  0  0  0  0 17  0  0
    1.9164    0.9166    0.7828 C   0  0  0  0  0  0  0  0  0 18  0  0
    1.6414    1.3921    1.7047 H   0  0  0  0  0  0  0  0  0 24  0  0
    2.9122   -0.0819    0.6736 C   0  0  0  0  0  0  0  0  0 19  0  0
    3.4990   -0.4505    1.4889 H   0  0  0  0  0  0  0  0  0 23  0  0
    3.0317   -0.5239   -0.6011 C   0  0  0  0  0  0  0  0  0 20  0  0
    4.2092   -1.8647   -1.1945 Br  0  0  0  0  0  0  0  0  0 22  0  0
    1.9406    0.2498   -1.7050 S   0  0  0  0  0  0  0  0  0 21  0  0
   -0.2857    3.6405    1.5653 C   0  0  0  0  0  0  0  0  0 25  0  0
   -0.3609    3.4041    2.6353 H   0  0  0  0  0  0  0  0  0 26  0  0
    0.7303    3.9290    1.3033 H   0  0  0  0  0  0  0  0  0 27  0  0
   -0.9463    4.4825    1.3427 H   0  0  0  0  0  0  0  0  0 28  0  0
   -2.7441    2.7675    0.9749 H   0  0  0  0  0  0  0  0  0 29  0  0
   -2.1742    1.2616    0.1680 H   0  0  0  0  0  0  0  0  0 30  0  0
   -1.2665   -0.2350    3.4127 H   0  0  0  0  0  0  0  0  0 31  0  0
    0.3170   -1.9676    1.9854 S   0  0  0  0  0  0  0  0  0 32  0  0
   -1.4803   -0.0856   -2.4478 H   0  0  0  0  0  0  0  0  0 36  0  0
   -1.6394   -1.3990   -3.6546 H   0  0  0  0  0  0  0  0  0 37  0  0
   -2.6899   -1.3442   -2.2298 H   0  0  0  0  0  0  0  0  0 38  0  0
  1  2  1  0
  2  3  4  0
  3  4  1  0
  3  5  4  0
  5  6  1  0
  5  7  4  0
  7  8  1  0
  7  9  4  0
  9 10  4  0
 10 11  4  0
 11 12  4  0
 12 13  1  0
 13 14  1  0
 14 15  2  0
 14 16  1  0
 16 17  1  0
 18 17  1  1
 18 19  2  0
 18 20  2  0
 18 21  1  0
 21 22  4  0
 22 23  1  0
 22 24  4  0
 24 25  1  0
 24 26  4  0
 26 27  1  0
 26 28  4  0
 17 29  1  0
 29 30  1  0
 29 31  1  0
 29 32  1  0
 16 33  1  0
 16 34  1  0
 13 35  1  0
 12 36  4  0
  1 37  1  0
  1 38  1  0
  1 39  1  0
 10  2  4  0
 28 21  4  0
 36  9  4  0
M  END
>  <sample_id>  (552)
train::Cc1cccc2sc(NC(=O)CN(C)S(=O)(=O)c3ccc(Br)s3)nc12__gen0002

>  <partition>  (552)
BAT_EXTERNAL_CONFIRM

>  <method>  (552)
BA_seed193

>  <candidate>  (552)
primary

$$$$
train::Cc1ccc2c(c1)C(SCC(=O)NCCc1ccccc1)CC1(CCCC1)O2__gen0000
     RDKit          3D

 57 60  0  0  0  0  0  0  0  0999 V2000
   -1.2472   -4.9668   -0.6954 C   0  0  0  0  0  0  0  0  0  0  0  0
   -1.4386   -3.5153   -0.9870 C   0  0  0  0  0  0  0  0  0  1  0  0
   -0.4061   -2.6019   -0.8676 C   0  0  0  0  0  0  0  0  0  2  0  0
    0.5727   -2.9463   -0.5798 H   0  0  0  0  0  0  0  0  0 53  0  0
   -0.5758   -1.2567   -1.1482 C   0  0  0  0  0  0  0  0  0  3  0  0
   -1.8257   -0.8007   -1.5554 C   0  0  0  0  0  0  0  0  0  4  0  0
   -2.8780   -1.6905   -1.6575 C   0  0  0  0  0  0  0  0  0  5  0  0
   -3.8405   -1.3307   -1.9317 H   0  0  0  0  0  0  0  0  0  8  0  0
   -2.6942   -3.0311   -1.3627 C   0  0  0  0  0  0  0  0  0  6  0  0
   -3.5243   -3.7211   -1.4515 H   0  0  0  0  0  0  0  0  0  7  0  0
   -2.1052    0.5119   -1.8326 O   0  0  0  0  0  0  0  0  0  9  0  0
   -1.1007    1.4851   -1.6122 C   0  0  1  0  0  0  0  0  0 10  0  0
    0.2891    0.9280   -1.8960 C   0  0  0  0  0  0  0  0  0 11  0  0
    1.0316    1.6989   -1.7002 H   0  0  0  0  0  0  0  0  0 39  0  0
    0.3733    0.6498   -2.9509 H   0  0  0  0  0  0  0  0  0 40  0  0
    0.5566   -0.2829   -1.0274 C   0  0  2  0  0  0  0  0  0 12  0  0
    0.7198   -0.0025    0.0153 H   0  0  0  0  0  0  0  0  0 13  0  0
    2.1263   -1.1787   -1.4768 S   0  0  0  0  0  0  0  0  0 14  0  0
    3.2711    0.2135   -1.6758 C   0  0  0  0  0  0  0  0  0 15  0  0
    3.2418    1.1340   -0.4452 C   0  0  0  0  0  0  0  0  0 16  0  0
    3.0636    2.3225   -0.5666 O   0  0  0  0  0  0  0  0  0 17  0  0
    3.4766    0.5015    0.7100 N   0  0  0  0  0  0  0  0  0 18  0  0
    3.5605   -0.4962    0.7150 H   0  0  0  0  0  0  0  0  0 19  0  0
    3.4701    1.1933    1.9817 C   0  0  0  0  0  0  0  0  0 20  0  0
    4.4751    1.5457    2.1946 H   0  0  0  0  0  0  0  0  0 21  0  0
    2.8179    2.0658    1.8738 H   0  0  0  0  0  0  0  0  0 22  0  0
    2.9657    0.2850    3.1054 C   0  0  0  0  0  0  0  0  0 23  0  0
    1.5225   -0.0887    2.9276 C   0  0  0  0  0  0  0  0  0 24  0  0
    1.1600   -1.3394    2.4289 C   0  0  0  0  0  0  0  0  0 25  0  0
    1.9184   -2.0566    2.1648 H   0  0  0  0  0  0  0  0  0 34  0  0
   -0.1798   -1.6753    2.2823 C   0  0  0  0  0  0  0  0  0 26  0  0
   -0.4440   -2.6541    1.9073 H   0  0  0  0  0  0  0  0  0 33  0  0
   -1.1604   -0.7640    2.6132 C   0  0  0  0  0  0  0  0  0 27  0  0
   -2.2090   -1.0385    2.4922 H   0  0  0  0  0  0  0  0  0 32  0  0
   -0.8069    0.4866    3.0878 C   0  0  0  0  0  0  0  0  0 28  0  0
   -1.5794    1.2043    3.3383 H   0  0  0  0  0  0  0  0  0 31  0  0
    0.5228    0.8164    3.2383 C   0  0  0  0  0  0  0  0  0 29  0  0
    0.7854    1.7981    3.6005 H   0  0  0  0  0  0  0  0  0 30  0  0
    3.0858    0.8249    4.0532 H   0  0  0  0  0  0  0  0  0 35  0  0
    3.5852   -0.6138    3.1458 H   0  0  0  0  0  0  0  0  0 36  0  0
    4.2543   -0.2247   -1.7789 H   0  0  0  0  0  0  0  0  0 37  0  0
    3.0081    0.7598   -2.5708 H   0  0  0  0  0  0  0  0  0 38  0  0
   -1.3885    2.7261   -2.4650 C   0  0  0  0  0  0  0  0  0 41  0  0
   -1.5406    2.4390   -3.5016 H   0  0  0  0  0  0  0  0  0 51  0  0
   -0.5502    3.4224   -2.4174 H   0  0  0  0  0  0  0  0  0 52  0  0
   -2.6410    3.3168   -1.8258 C   0  0  0  0  0  0  0  0  0 42  0  0
   -2.6380    4.4106   -1.8759 H   0  0  0  0  0  0  0  0  0 43  0  0
   -3.5210    2.9552   -2.3373 H   0  0  0  0  0  0  0  0  0 50  0  0
   -2.6007    2.8524   -0.3521 C   0  0  0  0  0  0  0  0  0 44  0  0
   -2.6357    3.6949    0.3244 H   0  0  0  0  0  0  0  0  0 45  0  0
   -3.4886    2.2399   -0.1609 H   0  0  0  0  0  0  0  0  0 46  0  0
   -1.3223    2.0188   -0.1966 C   0  0  0  0  0  0  0  0  0 47  0  0
   -0.4798    2.6290    0.1229 H   0  0  0  0  0  0  0  0  0 48  0  0
   -1.4349    1.1843    0.5037 H   0  0  0  0  0  0  0  0  0 49  0  0
   -2.0488   -5.3630   -0.0788 H   0  0  0  0  0  0  0  0  0 54  0  0
   -0.3020   -5.1413   -0.2087 H   0  0  0  0  0  0  0  0  0 55  0  0
   -1.2466   -5.5335   -1.6370 H   0  0  0  0  0  0  0  0  0 56  0  0
  1  2  1  0
  2  3  4  0
  3  4  1  0
  3  5  4  0
  5  6  4  0
  6  7  4  0
  7  8  1  0
  7  9  4  0
  9 10  1  0
  6 11  1  0
 12 11  1  6
 12 13  1  0
 13 14  1  0
 13 15  1  0
 13 16  1  0
 16 17  1  1
 16 18  1  0
 18 19  1  0
 19 20  1  0
 20 21  2  0
 20 22  1  0
 22 23  1  0
 22 24  1  0
 24 25  1  0
 24 26  1  0
 24 27  1  0
 27 28  1  0
 28 29  4  0
 29 30  1  0
 29 31  4  0
 31 32  1  0
 31 33  4  0
 33 34  1  0
 33 35  4  0
 35 36  1  0
 35 37  4  0
 37 38  1  0
 27 39  1  0
 27 40  1  0
 19 41  1  0
 19 42  1  0
 12 43  1  0
 43 44  1  0
 43 45  1  0
 43 46  1  0
 46 47  1  0
 46 48  1  0
 46 49  1  0
 49 50  1  0
 49 51  1  0
 49 52  1  0
 52 53  1  0
 52 54  1  0
  1 55  1  0
  1 56  1  0
  1 57  1  0
  9  2  4  0
 52 12  1  0
 16  5  1  0
 37 28  4  0
M  END
>  <sample_id>  (553)
train::Cc1ccc2c(c1)C(SCC(=O)NCCc1ccccc1)CC1(CCCC1)O2__gen0000

>  <partition>  (553)
BAT_EXTERNAL_CONFIRM

>  <method>  (553)
BA_seed193

>  <candidate>  (553)
primary

$$$$
train::Cc1ccc2c(c1)C(SCC(=O)NCCc1ccccc1)CC1(CCCC1)O2__gen0001
     RDKit          3D

 57 60  0  0  0  0  0  0  0  0999 V2000
   -0.4372    3.1751   -1.6613 C   0  0  0  0  0  0  0  0  0  0  0  0
   -1.1768    2.1828   -0.8158 C   0  0  0  0  0  0  0  0  0  1  0  0
   -0.6695    0.9062   -0.5896 C   0  0  0  0  0  0  0  0  0  2  0  0
    0.2889    0.6341   -1.0338 H   0  0  0  0  0  0  0  0  0 53  0  0
   -1.3527   -0.0269    0.1766 C   0  0  0  0  0  0  0  0  0  3  0  0
   -2.5719    0.3428    0.7648 C   0  0  0  0  0  0  0  0  0  4  0  0
   -3.0752    1.6094    0.5524 C   0  0  0  0  0  0  0  0  0  5  0  0
   -4.0291    1.8709    0.9920 H   0  0  0  0  0  0  0  0  0  8  0  0
   -2.3857    2.5215   -0.2228 C   0  0  0  0  0  0  0  0  0  6  0  0
   -2.7978    3.5014   -0.3870 H   0  0  0  0  0  0  0  0  0  7  0  0
   -3.3150   -0.4987    1.5411 O   0  0  0  0  0  0  0  0  0  9  0  0
   -3.0233   -1.8626    1.4842 C   0  0  2  0  0  0  0  0  0 10  0  0
   -1.4908   -2.0347    1.5910 C   0  0  0  0  0  0  0  0  0 11  0  0
   -1.2174   -3.0893    1.6363 H   0  0  0  0  0  0  0  0  0 39  0  0
   -1.1292   -1.5606    2.5076 H   0  0  0  0  0  0  0  0  0 40  0  0
   -0.7878   -1.3921    0.4079 C   0  0  2  0  0  0  0  0  0 12  0  0
   -0.8604   -2.0141   -0.4881 H   0  0  0  0  0  0  0  0  0 13  0  0
    1.0259   -1.3448    0.7915 S   0  0  0  0  0  0  0  0  0 14  0  0
    1.6633   -2.2763   -0.6593 C   0  0  0  0  0  0  0  0  0 15  0  0
    1.7517   -1.3213   -1.8348 C   0  0  0  0  0  0  0  0  0 16  0  0
    1.0444   -1.4436   -2.8084 O   0  0  0  0  0  0  0  0  0 17  0  0
    2.6713   -0.3600   -1.6371 N   0  0  0  0  0  0  0  0  0 18  0  0
    3.1167   -0.2769   -0.7450 H   0  0  0  0  0  0  0  0  0 19  0  0
    2.8233    0.7379   -2.6141 C   0  0  0  0  0  0  0  0  0 20  0  0
    2.0066    1.4351   -2.4878 H   0  0  0  0  0  0  0  0  0 21  0  0
    2.8088    0.3076   -3.6049 H   0  0  0  0  0  0  0  0  0 22  0  0
    4.1639    1.4366   -2.3468 C   0  0  0  0  0  0  0  0  0 23  0  0
    4.2998    1.8355   -0.9180 C   0  0  0  0  0  0  0  0  0 24  0  0
    5.1537    1.1581   -0.0709 C   0  0  0  0  0  0  0  0  0 25  0  0
    5.7642    0.3624   -0.4648 H   0  0  0  0  0  0  0  0  0 34  0  0
    5.2438    1.4760    1.2689 C   0  0  0  0  0  0  0  0  0 26  0  0
    5.9291    0.9372    1.9086 H   0  0  0  0  0  0  0  0  0 33  0  0
    4.4637    2.5020    1.7903 C   0  0  0  0  0  0  0  0  0 27  0  0
    4.5267    2.7501    2.8320 H   0  0  0  0  0  0  0  0  0 32  0  0
    3.5941    3.1866    0.9614 C   0  0  0  0  0  0  0  0  0 28  0  0
    2.9776    3.9810    1.3568 H   0  0  0  0  0  0  0  0  0 31  0  0
    3.5116    2.8571   -0.3865 C   0  0  0  0  0  0  0  0  0 29  0  0
    2.8253    3.3964   -1.0292 H   0  0  0  0  0  0  0  0  0 30  0  0
    4.2017    2.3219   -2.9968 H   0  0  0  0  0  0  0  0  0 35  0  0
    4.9786    0.7759   -2.6374 H   0  0  0  0  0  0  0  0  0 36  0  0
    2.6642   -2.6320   -0.3854 H   0  0  0  0  0  0  0  0  0 37  0  0
    1.0003   -3.1179   -0.8522 H   0  0  0  0  0  0  0  0  0 38  0  0
   -3.6638   -2.4269    0.2111 C   0  0  0  0  0  0  0  0  0 41  0  0
   -3.2233   -3.3832   -0.0433 H   0  0  0  0  0  0  0  0  0 51  0  0
   -3.5442   -1.7346   -0.6198 H   0  0  0  0  0  0  0  0  0 52  0  0
   -5.1163   -2.6075    0.6435 C   0  0  0  0  0  0  0  0  0 42  0  0
   -5.6241   -1.6544    0.7036 H   0  0  0  0  0  0  0  0  0 43  0  0
   -5.6807   -3.2774   -0.0180 H   0  0  0  0  0  0  0  0  0 50  0  0
   -4.9976   -3.1859    2.0617 C   0  0  0  0  0  0  0  0  0 44  0  0
   -4.8984   -4.2726    1.9797 H   0  0  0  0  0  0  0  0  0 45  0  0
   -5.8667   -2.9569    2.6750 H   0  0  0  0  0  0  0  0  0 46  0  0
   -3.7292   -2.5718    2.6645 C   0  0  0  0  0  0  0  0  0 47  0  0
   -3.0771   -3.3355    3.0759 H   0  0  0  0  0  0  0  0  0 48  0  0
   -3.9811   -1.8275    3.4199 H   0  0  0  0  0  0  0  0  0 49  0  0
    0.1679    2.6676   -2.4091 H   0  0  0  0  0  0  0  0  0 54  0  0
   -1.1513    3.8253   -2.1824 H   0  0  0  0  0  0  0  0  0 55  0  0
    0.2064    3.7916   -1.0481 H   0  0  0  0  0  0  0  0  0 56  0  0
  1  2  1  0
  2  3  4  0
  3  4  1  0
  3  5  4  0
  5  6  4  0
  6  7  4  0
  7  8  1  0
  7  9  4  0
  9 10  1  0
  6 11  1  0
 12 11  1  6
 12 13  1  0
 13 14  1  0
 13 15  1  0
 13 16  1  0
 16 17  1  6
 16 18  1  0
 18 19  1  0
 19 20  1  0
 20 21  2  0
 20 22  1  0
 22 23  1  0
 22 24  1  0
 24 25  1  0
 24 26  1  0
 24 27  1  0
 27 28  1  0
 28 29  4  0
 29 30  1  0
 29 31  4  0
 31 32  1  0
 31 33  4  0
 33 34  1  0
 33 35  4  0
 35 36  1  0
 35 37  4  0
 37 38  1  0
 27 39  1  0
 27 40  1  0
 19 41  1  0
 19 42  1  0
 12 43  1  0
 43 44  1  0
 43 45  1  0
 43 46  1  0
 46 47  1  0
 46 48  1  0
 46 49  1  0
 49 50  1  0
 49 51  1  0
 49 52  1  0
 52 53  1  0
 52 54  1  0
  1 55  1  0
  1 56  1  0
  1 57  1  0
  9  2  4  0
 52 12  1  0
 16  5  1  0
 37 28  4  0
M  END
>  <sample_id>  (554)
train::Cc1ccc2c(c1)C(SCC(=O)NCCc1ccccc1)CC1(CCCC1)O2__gen0001

>  <partition>  (554)
BAT_EXTERNAL_CONFIRM

>  <method>  (554)
BA_seed193

>  <candidate>  (554)
primary

$$$$
train::Cc1ccc2c(c1)C(SCC(=O)NCCc1ccccc1)CC1(CCCC1)O2__gen0002
     RDKit          3D

 57 60  0  0  0  0  0  0  0  0999 V2000
    6.1264    0.7789    2.4555 C   0  0  0  0  0  0  0  0  0  0  0  0
    5.0303    0.8142    1.4272 C   0  0  0  0  0  0  0  0  0  1  0  0
    3.7006    0.9899    1.7562 C   0  0  0  0  0  0  0  0  0  2  0  0
    3.4159    1.0710    2.8004 H   0  0  0  0  0  0  0  0  0 53  0  0
    2.6975    0.9942    0.8068 C   0  0  0  0  0  0  0  0  0  3  0  0
    3.0534    0.8719   -0.5337 C   0  0  0  0  0  0  0  0  0  4  0  0
    4.3948    0.7359   -0.8856 C   0  0  0  0  0  0  0  0  0  5  0  0
    4.6360    0.6439   -1.9316 H   0  0  0  0  0  0  0  0  0  8  0  0
    5.3483    0.7031    0.0822 C   0  0  0  0  0  0  0  0  0  6  0  0
    6.3874    0.6005   -0.2170 H   0  0  0  0  0  0  0  0  0  7  0  0
    2.1327    0.9080   -1.5680 O   0  0  0  0  0  0  0  0  0  9  0  0
    0.7976    0.5848   -1.2303 C   0  0  1  0  0  0  0  0  0 10  0  0
    0.2670    1.2301    0.0452 C   0  0  0  0  0  0  0  0  0 11  0  0
   -0.6242    0.6607    0.3278 H   0  0  0  0  0  0  0  0  0 39  0  0
   -0.0668    2.2276   -0.1642 H   0  0  0  0  0  0  0  0  0 40  0  0
    1.2975    1.2567    1.1851 C   0  0  1  0  0  0  0  0  0 12  0  0
    1.2027    2.2489    1.6534 H   0  0  0  0  0  0  0  0  0 13  0  0
    0.7946    0.1201    2.5262 S   0  0  0  0  0  0  0  0  0 14  0  0
   -0.7437    0.9772    3.0930 C   0  0  0  0  0  0  0  0  0 15  0  0
   -2.0527    0.3506    2.6429 C   0  0  0  0  0  0  0  0  0 16  0  0
   -3.0442    1.0449    2.5090 O   0  0  0  0  0  0  0  0  0 17  0  0
   -2.0295   -0.9676    2.4707 N   0  0  0  0  0  0  0  0  0 18  0  0
   -1.1284   -1.4267    2.4759 H   0  0  0  0  0  0  0  0  0 19  0  0
   -3.1912   -1.7531    2.2498 C   0  0  0  0  0  0  0  0  0 20  0  0
   -4.0791   -1.1141    2.4153 H   0  0  0  0  0  0  0  0  0 21  0  0
   -3.2258   -2.5696    2.9880 H   0  0  0  0  0  0  0  0  0 22  0  0
   -3.2746   -2.4060    0.8508 C   0  0  0  0  0  0  0  0  0 23  0  0
   -3.5694   -1.4015   -0.2562 C   0  0  0  0  0  0  0  0  0 24  0  0
   -2.8529   -1.4394   -1.4456 C   0  0  0  0  0  0  0  0  0 25  0  0
   -2.0539   -2.1683   -1.5664 H   0  0  0  0  0  0  0  0  0 34  0  0
   -3.1432   -0.5833   -2.4869 C   0  0  0  0  0  0  0  0  0 26  0  0
   -2.5558   -0.6582   -3.4109 H   0  0  0  0  0  0  0  0  0 33  0  0
   -4.1498    0.3492   -2.3810 C   0  0  0  0  0  0  0  0  0 27  0  0
   -4.3649    0.9985   -3.1886 H   0  0  0  0  0  0  0  0  0 32  0  0
   -4.8993    0.3773   -1.2200 C   0  0  0  0  0  0  0  0  0 28  0  0
   -5.6884    1.0855   -1.1196 H   0  0  0  0  0  0  0  0  0 31  0  0
   -4.6289   -0.4732   -0.1629 C   0  0  0  0  0  0  0  0  0 29  0  0
   -5.2164   -0.4416    0.7314 H   0  0  0  0  0  0  0  0  0 30  0  0
   -4.0689   -3.1447    0.8631 H   0  0  0  0  0  0  0  0  0 35  0  0
   -2.3235   -2.8701    0.6296 H   0  0  0  0  0  0  0  0  0 36  0  0
   -0.7199    0.9158    4.1898 H   0  0  0  0  0  0  0  0  0 37  0  0
   -0.7222    2.0147    2.7987 H   0  0  0  0  0  0  0  0  0 38  0  0
   -0.1003    0.9909   -2.4032 C   0  0  0  0  0  0  0  0  0 41  0  0
   -1.1281    0.9541   -2.0961 H   0  0  0  0  0  0  0  0  0 51  0  0
    0.1463    2.0167   -2.7000 H   0  0  0  0  0  0  0  0  0 52  0  0
    0.1810   -0.0060   -3.4756 C   0  0  0  0  0  0  0  0  0 42  0  0
    0.9644    0.3520   -4.1548 H   0  0  0  0  0  0  0  0  0 43  0  0
   -0.7241   -0.1878   -4.0543 H   0  0  0  0  0  0  0  0  0 50  0  0
    0.6507   -1.2891   -2.7629 C   0  0  0  0  0  0  0  0  0 44  0  0
    1.6254   -1.5791   -3.1498 H   0  0  0  0  0  0  0  0  0 45  0  0
   -0.0217   -2.1245   -2.8880 H   0  0  0  0  0  0  0  0  0 46  0  0
    0.7750   -0.9769   -1.2590 C   0  0  0  0  0  0  0  0  0 47  0  0
   -0.0841   -1.3169   -0.6903 H   0  0  0  0  0  0  0  0  0 48  0  0
    1.6732   -1.3543   -0.7890 H   0  0  0  0  0  0  0  0  0 49  0  0
    6.8662    0.0612    2.2243 H   0  0  0  0  0  0  0  0  0 54  0  0
    6.6047    1.7791    2.5505 H   0  0  0  0  0  0  0  0  0 55  0  0
    5.7062    0.5437    3.4424 H   0  0  0  0  0  0  0  0  0 56  0  0
  1  2  1  0
  2  3  4  0
  3  4  1  0
  3  5  4  0
  5  6  4  0
  6  7  4  0
  7  8  1  0
  7  9  4  0
  9 10  1  0
  6 11  1  0
 12 11  1  6
 12 13  1  0
 13 14  1  0
 13 15  1  0
 13 16  1  0
 16 17  1  6
 16 18  1  0
 18 19  1  0
 19 20  1  0
 20 21  2  0
 20 22  1  0
 22 23  1  0
 22 24  1  0
 24 25  1  0
 24 26  1  0
 24 27  1  0
 27 28  1  0
 28 29  4  0
 29 30  1  0
 29 31  4  0
 31 32  1  0
 31 33  4  0
 33 34  1  0
 33 35  4  0
 35 36  1  0
 35 37  4  0
 37 38  1  0
 27 39  1  0
 27 40  1  0
 19 41  1  0
 19 42  1  0
 12 43  1  0
 43 44  1  0
 43 45  1  0
 43 46  1  0
 46 47  1  0
 46 48  1  0
 46 49  1  0
 49 50  1  0
 49 51  1  0
 49 52  1  0
 52 53  1  0
 52 54  1  0
  1 55  1  0
  1 56  1  0
  1 57  1  0
  9  2  4  0
 52 12  1  0
 16  5  1  0
 37 28  4  0
M  END
>  <sample_id>  (555)
train::Cc1ccc2c(c1)C(SCC(=O)NCCc1ccccc1)CC1(CCCC1)O2__gen0002

>  <partition>  (555)
BAT_EXTERNAL_CONFIRM

>  <method>  (555)
BA_seed193

>  <candidate>  (555)
primary

$$$$
train::Cc1cccc(-c2nnnn2-c2cccc(C)c2)c1__gen0000
     RDKit          3D

 33 35  0  0  0  0  0  0  0  0999 V2000
   -1.6726   -1.2418   -2.6303 C   0  0  0  0  0  0  0  0  0  0  0  0
   -0.2528   -0.8142   -2.4038 C   0  0  0  0  0  0  0  0  0  1  0  0
    0.3281   -0.9591   -1.1518 C   0  0  0  0  0  0  0  0  0  2  0  0
   -0.2492   -1.3922   -0.3468 H   0  0  0  0  0  0  0  0  0 29  0  0
    1.6517   -0.5858   -0.9386 C   0  0  0  0  0  0  0  0  0  3  0  0
    2.2781   -0.7452    0.3656 C   0  0  0  0  0  0  0  0  0 10  0  0
    3.5107   -1.1343    0.5861 N   0  0  0  0  0  0  0  0  0 11  0  0
    3.6690   -1.2108    1.8955 N   0  0  0  0  0  0  0  0  0 12  0  0
    2.6079   -0.8970    2.5007 N   0  0  0  0  0  0  0  0  0 13  0  0
    1.6816   -0.5818    1.5816 N   0  0  0  0  0  0  0  0  0 14  0  0
    0.4060   -0.1166    1.9363 C   0  0  0  0  0  0  0  0  0 15  0  0
   -0.2490   -0.6974    3.0096 C   0  0  0  0  0  0  0  0  0 16  0  0
    0.2258   -1.5004    3.5496 H   0  0  0  0  0  0  0  0  0 28  0  0
   -1.5009   -0.2238    3.3587 C   0  0  0  0  0  0  0  0  0 17  0  0
   -2.0293   -0.6789    4.1865 H   0  0  0  0  0  0  0  0  0 27  0  0
   -2.0914    0.8027    2.6401 C   0  0  0  0  0  0  0  0  0 18  0  0
   -3.0594    1.1707    2.9296 H   0  0  0  0  0  0  0  0  0 26  0  0
   -1.4156    1.4130    1.5819 C   0  0  0  0  0  0  0  0  0 19  0  0
   -2.0534    2.5362    0.8308 C   0  0  0  0  0  0  0  0  0 22  0  0
   -2.5217    3.2441    1.5123 H   0  0  0  0  0  0  0  0  0 23  0  0
   -2.8276    2.1548    0.1603 H   0  0  0  0  0  0  0  0  0 24  0  0
   -1.3193    3.0535    0.2235 H   0  0  0  0  0  0  0  0  0 25  0  0
   -0.1574    0.9361    1.2297 C   0  0  0  0  0  0  0  0  0 20  0  0
    0.3871    1.4166    0.4291 H   0  0  0  0  0  0  0  0  0 21  0  0
    2.4218   -0.0969   -1.9878 C   0  0  0  0  0  0  0  0  0  4  0  0
    3.4478    0.1777   -1.8156 H   0  0  0  0  0  0  0  0  0  9  0  0
    1.8454    0.0652   -3.2306 C   0  0  0  0  0  0  0  0  0  5  0  0
    2.4175    0.4592   -4.0554 H   0  0  0  0  0  0  0  0  0  8  0  0
    0.5216   -0.2937   -3.4429 C   0  0  0  0  0  0  0  0  0  6  0  0
    0.0690   -0.1721   -4.4156 H   0  0  0  0  0  0  0  0  0  7  0  0
   -2.2644   -1.1282   -1.7312 H   0  0  0  0  0  0  0  0  0 30  0  0
   -1.6852   -2.2921   -2.9203 H   0  0  0  0  0  0  0  0  0 31  0  0
   -2.1201   -0.6676   -3.4368 H   0  0  0  0  0  0  0  0  0 32  0  0
  1  2  1  0
  2  3  4  0
  3  4  1  0
  3  5  4  0
  5  6  1  0
  6  7  4  0
  7  8  4  0
  8  9  4  0
  9 10  4  0
 10 11  1  0
 11 12  4  0
 12 13  1  0
 12 14  4  0
 14 15  1  0
 14 16  4  0
 16 17  1  0
 16 18  4  0
 18 19  1  0
 19 20  1  0
 19 21  1  0
 19 22  1  0
 18 23  4  0
 23 24  1  0
  5 25  4  0
 25 26  1  0
 25 27  4  0
 27 28  1  0
 27 29  4  0
 29 30  1  0
  1 31  1  0
  1 32  1  0
  1 33  1  0
 29  2  4  0
 10  6  4  0
 23 11  4  0
M  END
>  <sample_id>  (556)
train::Cc1cccc(-c2nnnn2-c2cccc(C)c2)c1__gen0000

>  <partition>  (556)
BAT_EXTERNAL_CONFIRM

>  <method>  (556)
BA_seed193

>  <candidate>  (556)
primary

$$$$
train::Cc1cccc(-c2nnnn2-c2cccc(C)c2)c1__gen0001
     RDKit          3D

 33 35  0  0  0  0  0  0  0  0999 V2000
   -0.3072   -3.1665   -0.6873 C   0  0  0  0  0  0  0  0  0  0  0  0
    0.7883   -2.5117    0.0980 C   0  0  0  0  0  0  0  0  0  1  0  0
    0.8071   -1.1205    0.2029 C   0  0  0  0  0  0  0  0  0  2  0  0
    0.0139   -0.5654   -0.2522 H   0  0  0  0  0  0  0  0  0 29  0  0
    1.8246   -0.4874    0.9331 C   0  0  0  0  0  0  0  0  0  3  0  0
    1.9011    0.9479    1.0788 C   0  0  0  0  0  0  0  0  0 10  0  0
    2.8396    1.5771    1.7609 N   0  0  0  0  0  0  0  0  0 11  0  0
    2.5861    2.8703    1.6986 N   0  0  0  0  0  0  0  0  0 12  0  0
    1.5387    3.0777    1.0029 N   0  0  0  0  0  0  0  0  0 13  0  0
    1.0654    1.8997    0.5986 N   0  0  0  0  0  0  0  0  0 14  0  0
   -0.0688    1.8163   -0.2384 C   0  0  0  0  0  0  0  0  0 15  0  0
    0.0706    2.0124   -1.6059 C   0  0  0  0  0  0  0  0  0 16  0  0
    1.0489    2.1904   -2.0242 H   0  0  0  0  0  0  0  0  0 28  0  0
   -1.0532    1.9396   -2.4099 C   0  0  0  0  0  0  0  0  0 17  0  0
   -0.9580    2.0886   -3.4716 H   0  0  0  0  0  0  0  0  0 27  0  0
   -2.3011    1.7031   -1.8534 C   0  0  0  0  0  0  0  0  0 18  0  0
   -3.1663    1.6646   -2.4839 H   0  0  0  0  0  0  0  0  0 26  0  0
   -2.4413    1.5389   -0.4806 C   0  0  0  0  0  0  0  0  0 19  0  0
   -3.7864    1.2823    0.1363 C   0  0  0  0  0  0  0  0  0 22  0  0
   -3.9969    2.0036    0.9178 H   0  0  0  0  0  0  0  0  0 23  0  0
   -4.5738    1.3336   -0.6089 H   0  0  0  0  0  0  0  0  0 24  0  0
   -3.8064    0.2799    0.5858 H   0  0  0  0  0  0  0  0  0 25  0  0
   -1.3170    1.6080    0.3318 C   0  0  0  0  0  0  0  0  0 20  0  0
   -1.4065    1.4665    1.4010 H   0  0  0  0  0  0  0  0  0 21  0  0
    2.8316   -1.2662    1.5121 C   0  0  0  0  0  0  0  0  0  4  0  0
    3.6183   -0.7568    2.0511 H   0  0  0  0  0  0  0  0  0  9  0  0
    2.8244   -2.6273    1.3713 C   0  0  0  0  0  0  0  0  0  5  0  0
    3.6031   -3.2241    1.8295 H   0  0  0  0  0  0  0  0  0  8  0  0
    1.8068   -3.2573    0.6692 C   0  0  0  0  0  0  0  0  0  6  0  0
    1.8054   -4.3320    0.5837 H   0  0  0  0  0  0  0  0  0  7  0  0
   -1.2786   -2.8080   -0.3356 H   0  0  0  0  0  0  0  0  0 30  0  0
   -0.2783   -4.2540   -0.5724 H   0  0  0  0  0  0  0  0  0 31  0  0
   -0.2338   -2.9234   -1.7389 H   0  0  0  0  0  0  0  0  0 32  0  0
  1  2  1  0
  2  3  4  0
  3  4  1  0
  3  5  4  0
  5  6  1  0
  6  7  4  0
  7  8  4  0
  8  9  4  0
  9 10  4  0
 10 11  1  0
 11 12  4  0
 12 13  1  0
 12 14  4  0
 14 15  1  0
 14 16  4  0
 16 17  1  0
 16 18  4  0
 18 19  1  0
 19 20  1  0
 19 21  1  0
 19 22  1  0
 18 23  4  0
 23 24  1  0
  5 25  4  0
 25 26  1  0
 25 27  4  0
 27 28  1  0
 27 29  4  0
 29 30  1  0
  1 31  1  0
  1 32  1  0
  1 33  1  0
 29  2  4  0
 10  6  4  0
 23 11  4  0
M  END
>  <sample_id>  (557)
train::Cc1cccc(-c2nnnn2-c2cccc(C)c2)c1__gen0001

>  <partition>  (557)
BAT_EXTERNAL_CONFIRM

>  <method>  (557)
BA_seed193

>  <candidate>  (557)
primary

$$$$
train::Cc1cccc(-c2nnnn2-c2cccc(C)c2)c1__gen0002
     RDKit          3D

 33 35  0  0  0  0  0  0  0  0999 V2000
   -3.2990    1.8789   -2.9243 C   0  0  0  0  0  0  0  0  0  0  0  0
   -2.4658    0.9061   -2.1333 C   0  0  0  0  0  0  0  0  0  1  0  0
   -2.3460    1.0275   -0.7628 C   0  0  0  0  0  0  0  0  0  2  0  0
   -2.8636    1.8183   -0.2350 H   0  0  0  0  0  0  0  0  0 29  0  0
   -1.5870    0.1172   -0.0326 C   0  0  0  0  0  0  0  0  0  3  0  0
   -1.5150    0.2785    1.4068 C   0  0  0  0  0  0  0  0  0 10  0  0
   -2.4987    0.6805    2.1778 N   0  0  0  0  0  0  0  0  0 11  0  0
   -2.0627    0.6268    3.4249 N   0  0  0  0  0  0  0  0  0 12  0  0
   -0.8709    0.2426    3.4810 N   0  0  0  0  0  0  0  0  0 13  0  0
   -0.4635   -0.0132    2.2340 N   0  0  0  0  0  0  0  0  0 14  0  0
    0.8482   -0.4141    1.9359 C   0  0  0  0  0  0  0  0  0 15  0  0
    1.4661   -1.3385    2.7703 C   0  0  0  0  0  0  0  0  0 16  0  0
    0.9359   -1.7295    3.6276 H   0  0  0  0  0  0  0  0  0 28  0  0
    2.7617   -1.7297    2.4863 C   0  0  0  0  0  0  0  0  0 17  0  0
    3.2534   -2.4526    3.1267 H   0  0  0  0  0  0  0  0  0 27  0  0
    3.4283   -1.2157    1.3863 C   0  0  0  0  0  0  0  0  0 18  0  0
    4.4371   -1.5400    1.1763 H   0  0  0  0  0  0  0  0  0 26  0  0
    2.8154   -0.2714    0.5740 C   0  0  0  0  0  0  0  0  0 19  0  0
    3.5273    0.2977   -0.6234 C   0  0  0  0  0  0  0  0  0 22  0  0
    3.5591    1.3834   -0.5487 H   0  0  0  0  0  0  0  0  0 23  0  0
    3.0107    0.0251   -1.5389 H   0  0  0  0  0  0  0  0  0 24  0  0
    4.5571   -0.0661   -0.6702 H   0  0  0  0  0  0  0  0  0 25  0  0
    1.5155    0.1177    0.8463 C   0  0  0  0  0  0  0  0  0 20  0  0
    1.0425    0.8674    0.2373 H   0  0  0  0  0  0  0  0  0 21  0  0
   -0.9505   -0.9378   -0.6854 C   0  0  0  0  0  0  0  0  0  4  0  0
   -0.3869   -1.6582   -0.1225 H   0  0  0  0  0  0  0  0  0  9  0  0
   -1.0600   -1.0444   -2.0552 C   0  0  0  0  0  0  0  0  0  5  0  0
   -0.5676   -1.8622   -2.5750 H   0  0  0  0  0  0  0  0  0  8  0  0
   -1.8054   -0.1306   -2.7759 C   0  0  0  0  0  0  0  0  0  6  0  0
   -1.8745   -0.2265   -3.8499 H   0  0  0  0  0  0  0  0  0  7  0  0
   -4.2586    1.4345   -3.1408 H   0  0  0  0  0  0  0  0  0 30  0  0
   -3.4712    2.7937   -2.3571 H   0  0  0  0  0  0  0  0  0 31  0  0
   -2.8111    2.1349   -3.8605 H   0  0  0  0  0  0  0  0  0 32  0  0
  1  2  1  0
  2  3  4  0
  3  4  1  0
  3  5  4  0
  5  6  1  0
  6  7  4  0
  7  8  4  0
  8  9  4  0
  9 10  4  0
 10 11  1  0
 11 12  4  0
 12 13  1  0
 12 14  4  0
 14 15  1  0
 14 16  4  0
 16 17  1  0
 16 18  4  0
 18 19  1  0
 19 20  1  0
 19 21  1  0
 19 22  1  0
 18 23  4  0
 23 24  1  0
  5 25  4  0
 25 26  1  0
 25 27  4  0
 27 28  1  0
 27 29  4  0
 29 30  1  0
  1 31  1  0
  1 32  1  0
  1 33  1  0
 29  2  4  0
 10  6  4  0
 23 11  4  0
M  END
>  <sample_id>  (558)
train::Cc1cccc(-c2nnnn2-c2cccc(C)c2)c1__gen0002

>  <partition>  (558)
BAT_EXTERNAL_CONFIRM

>  <method>  (558)
BA_seed193

>  <candidate>  (558)
primary

$$$$
train::Cc1cc(C(=O)NCC2(N3CCCCC3)CCCCC2)ccc1[N+](=O)[O-]__gen0000
     RDKit          3D

 55 57  0  0  0  0  0  0  0  0999 V2000
   -2.2643    0.3992    5.0338 C   0  0  0  0  0  0  0  0  0  0  0  0
   -2.3050   -0.6553    3.9745 C   0  0  0  0  0  0  0  0  0  1  0  0
   -2.2018   -0.3028    2.6342 C   0  0  0  0  0  0  0  0  0  2  0  0
   -2.1334    0.7450    2.4027 H   0  0  0  0  0  0  0  0  0 51  0  0
   -2.2330   -1.2520    1.6183 C   0  0  0  0  0  0  0  0  0  3  0  0
   -2.1526   -0.8772    0.1751 C   0  0  0  0  0  0  0  0  0 12  0  0
   -2.7155   -1.5231   -0.6863 O   0  0  0  0  0  0  0  0  0 13  0  0
   -1.4623    0.2531   -0.0808 N   0  0  0  0  0  0  0  0  0 14  0  0
   -0.8468    0.6557    0.6073 H   0  0  0  0  0  0  0  0  0 15  0  0
   -1.1366    0.6570   -1.4184 C   0  0  0  0  0  0  0  0  0 16  0  0
   -1.7548    0.0736   -2.1033 H   0  0  0  0  0  0  0  0  0 17  0  0
   -1.4104    1.7176   -1.5319 H   0  0  0  0  0  0  0  0  0 18  0  0
    0.3757    0.5072   -1.7193 C   0  0  2  0  0  0  0  0  0 19  0  0
    1.0338    1.3050   -0.7048 N   0  0  0  0  0  0  0  0  0 20  0  0
    1.9674    0.7507    0.2707 C   0  0  0  0  0  0  0  0  0 21  0  0
    1.6895   -0.2762    0.5111 H   0  0  0  0  0  0  0  0  0 22  0  0
    1.8720    1.3598    1.1806 H   0  0  0  0  0  0  0  0  0 35  0  0
    3.4262    0.8220   -0.1843 C   0  0  0  0  0  0  0  0  0 23  0  0
    3.5790    0.2298   -1.0826 H   0  0  0  0  0  0  0  0  0 33  0  0
    4.0689    0.4125    0.5958 H   0  0  0  0  0  0  0  0  0 34  0  0
    3.8098    2.2790   -0.4577 C   0  0  0  0  0  0  0  0  0 24  0  0
    3.7825    2.8427    0.4716 H   0  0  0  0  0  0  0  0  0 31  0  0
    4.8372    2.3246   -0.8431 H   0  0  0  0  0  0  0  0  0 32  0  0
    2.8212    2.8915   -1.4432 C   0  0  0  0  0  0  0  0  0 25  0  0
    3.0189    3.9600   -1.5441 H   0  0  0  0  0  0  0  0  0 29  0  0
    2.9462    2.4366   -2.4231 H   0  0  0  0  0  0  0  0  0 30  0  0
    1.3826    2.6974   -0.9365 C   0  0  0  0  0  0  0  0  0 26  0  0
    0.6916    3.1233   -1.6699 H   0  0  0  0  0  0  0  0  0 27  0  0
    1.2721    3.2349    0.0007 H   0  0  0  0  0  0  0  0  0 28  0  0
    0.6699    0.9821   -3.1612 C   0  0  0  0  0  0  0  0  0 36  0  0
    1.7504    0.9789   -3.3092 H   0  0  0  0  0  0  0  0  0 49  0  0
    0.3163    2.0068   -3.2852 H   0  0  0  0  0  0  0  0  0 50  0  0
    0.0102    0.1225   -4.2336 C   0  0  0  0  0  0  0  0  0 37  0  0
    0.3009    0.5159   -5.2133 H   0  0  0  0  0  0  0  0  0 47  0  0
   -1.0694    0.1692   -4.1573 H   0  0  0  0  0  0  0  0  0 48  0  0
    0.4616   -1.3245   -4.1119 C   0  0  0  0  0  0  0  0  0 38  0  0
    1.5209   -1.3952   -4.3004 H   0  0  0  0  0  0  0  0  0 45  0  0
   -0.0537   -1.9376   -4.8632 H   0  0  0  0  0  0  0  0  0 46  0  0
    0.1276   -1.8531   -2.7178 C   0  0  0  0  0  0  0  0  0 39  0  0
   -0.9600   -1.8618   -2.5911 H   0  0  0  0  0  0  0  0  0 43  0  0
    0.4855   -2.8779   -2.5987 H   0  0  0  0  0  0  0  0  0 44  0  0
    0.7877   -0.9789   -1.6440 C   0  0  0  0  0  0  0  0  0 40  0  0
    0.5303   -1.3793   -0.6662 H   0  0  0  0  0  0  0  0  0 41  0  0
    1.8617   -1.0481   -1.7926 H   0  0  0  0  0  0  0  0  0 42  0  0
   -2.3666   -2.5933    1.9405 C   0  0  0  0  0  0  0  0  0  4  0  0
   -2.4148   -3.3166    1.1486 H   0  0  0  0  0  0  0  0  0 11  0  0
   -2.4554   -2.9802    3.2615 C   0  0  0  0  0  0  0  0  0  5  0  0
   -2.5529   -4.0265    3.5343 H   0  0  0  0  0  0  0  0  0 10  0  0
   -2.4276   -2.0288    4.2752 C   0  0  0  0  0  0  0  0  0  6  0  0
   -2.5337   -2.5195    5.6245 N   0  0  0  0  0  0  0  0  0  7  0  0
   -2.2706   -3.6879    5.8023 O   0  0  0  0  0  0  0  0  0  8  0  0
   -2.8854   -1.7541    6.4987 O   0  0  0  0  0  0  0  0  0  9  0  0
   -1.9774    1.3519    4.5957 H   0  0  0  0  0  0  0  0  0 52  0  0
   -1.5678    0.1403    5.8255 H   0  0  0  0  0  0  0  0  0 53  0  0
   -3.2458    0.5041    5.4920 H   0  0  0  0  0  0  0  0  0 54  0  0
  1  2  1  0
  2  3  4  0
  3  4  1  0
  3  5  4  0
  5  6  1  0
  6  7  2  0
  6  8  1  0
  8  9  1  0
  8 10  1  0
 10 11  1  0
 10 12  1  0
 13 10  1  1
 13 14  1  0
 14 15  1  0
 15 16  1  0
 15 17  1  0
 15 18  1  0
 18 19  1  0
 18 20  1  0
 18 21  1  0
 21 22  1  0
 21 23  1  0
 21 24  1  0
 24 25  1  0
 24 26  1  0
 24 27  1  0
 27 28  1  0
 27 29  1  0
 13 30  1  0
 30 31  1  0
 30 32  1  0
 30 33  1  0
 33 34  1  0
 33 35  1  0
 33 36  1  0
 36 37  1  0
 36 38  1  0
 36 39  1  0
 39 40  1  0
 39 41  1  0
 39 42  1  0
 42 43  1  0
 42 44  1  0
  5 45  4  0
 45 46  1  0
 45 47  4  0
 47 48  1  0
 47 49  4  0
 49 50  1  0
 50 51  2  0
 50 52  1  0
  1 53  1  0
  1 54  1  0
  1 55  1  0
 49  2  4  0
 42 13  1  0
 27 14  1  0
M  CHG  2  50   1  52  -1
M  END
>  <sample_id>  (559)
train::Cc1cc(C(=O)NCC2(N3CCCCC3)CCCCC2)ccc1[N+](=O)[O-]__gen0000

>  <partition>  (559)
BAT_EXTERNAL_CONFIRM

>  <method>  (559)
BA_seed193

>  <candidate>  (559)
primary

$$$$
train::Cc1cc(C(=O)NCC2(N3CCCCC3)CCCCC2)ccc1[N+](=O)[O-]__gen0001
     RDKit          3D

 55 57  0  0  0  0  0  0  0  0999 V2000
   -2.3576   -2.0199   -5.3603 C   0  0  0  0  0  0  0  0  0  0  0  0
   -2.2844   -1.4996   -3.9558 C   0  0  0  0  0  0  0  0  0  1  0  0
   -1.1029   -0.9576   -3.4880 C   0  0  0  0  0  0  0  0  0  2  0  0
   -0.2442   -0.9117   -4.1377 H   0  0  0  0  0  0  0  0  0 51  0  0
   -0.9797   -0.4738   -2.1941 C   0  0  0  0  0  0  0  0  0  3  0  0
    0.3519    0.0669   -1.7657 C   0  0  0  0  0  0  0  0  0 12  0  0
    1.3902   -0.4202   -2.1737 O   0  0  0  0  0  0  0  0  0 13  0  0
    0.2849    1.1347   -0.9431 N   0  0  0  0  0  0  0  0  0 14  0  0
   -0.6220    1.4218   -0.6145 H   0  0  0  0  0  0  0  0  0 15  0  0
    1.4270    1.6042   -0.2001 C   0  0  0  0  0  0  0  0  0 16  0  0
    2.2982    1.1249   -0.6393 H   0  0  0  0  0  0  0  0  0 17  0  0
    1.5237    2.6843   -0.3043 H   0  0  0  0  0  0  0  0  0 18  0  0
    1.2872    1.2647    1.3073 C   0  0  2  0  0  0  0  0  0 19  0  0
    0.8940   -0.1453    1.3777 N   0  0  0  0  0  0  0  0  0 20  0  0
    1.9198   -1.1044    0.9696 C   0  0  0  0  0  0  0  0  0 21  0  0
    2.6325   -1.2882    1.7792 H   0  0  0  0  0  0  0  0  0 22  0  0
    2.4780   -0.7221    0.1085 H   0  0  0  0  0  0  0  0  0 35  0  0
    1.2915   -2.4324    0.5613 C   0  0  0  0  0  0  0  0  0 23  0  0
    2.0608   -3.1225    0.2192 H   0  0  0  0  0  0  0  0  0 33  0  0
    0.6101   -2.2473   -0.2694 H   0  0  0  0  0  0  0  0  0 34  0  0
    0.5325   -3.0102    1.7382 C   0  0  0  0  0  0  0  0  0 24  0  0
    1.2213   -3.2852    2.5395 H   0  0  0  0  0  0  0  0  0 31  0  0
    0.0158   -3.9279    1.4366 H   0  0  0  0  0  0  0  0  0 32  0  0
   -0.4622   -1.9820    2.2571 C   0  0  0  0  0  0  0  0  0 25  0  0
   -0.9409   -2.3501    3.1569 H   0  0  0  0  0  0  0  0  0 29  0  0
   -1.2152   -1.8059    1.5074 H   0  0  0  0  0  0  0  0  0 30  0  0
    0.2620   -0.6710    2.5791 C   0  0  0  0  0  0  0  0  0 26  0  0
   -0.4710    0.0389    2.9628 H   0  0  0  0  0  0  0  0  0 27  0  0
    1.0054   -0.8408    3.3753 H   0  0  0  0  0  0  0  0  0 28  0  0
    0.1794    2.1947    1.8876 C   0  0  0  0  0  0  0  0  0 36  0  0
   -0.0211    1.9416    2.9242 H   0  0  0  0  0  0  0  0  0 49  0  0
   -0.7444    2.0381    1.3316 H   0  0  0  0  0  0  0  0  0 50  0  0
    0.5435    3.6622    1.8633 C   0  0  0  0  0  0  0  0  0 37  0  0
    0.7020    4.0231    0.8502 H   0  0  0  0  0  0  0  0  0 47  0  0
   -0.2882    4.2516    2.2696 H   0  0  0  0  0  0  0  0  0 48  0  0
    1.7824    3.8913    2.7155 C   0  0  0  0  0  0  0  0  0 38  0  0
    2.0967    4.9414    2.7016 H   0  0  0  0  0  0  0  0  0 45  0  0
    1.5520    3.6179    3.7377 H   0  0  0  0  0  0  0  0  0 46  0  0
    2.9323    3.0292    2.1812 C   0  0  0  0  0  0  0  0  0 39  0  0
    3.1899    3.3751    1.1818 H   0  0  0  0  0  0  0  0  0 43  0  0
    3.7948    3.1579    2.8272 H   0  0  0  0  0  0  0  0  0 44  0  0
    2.5568    1.5467    2.1345 C   0  0  0  0  0  0  0  0  0 40  0  0
    3.3815    0.9785    1.6866 H   0  0  0  0  0  0  0  0  0 41  0  0
    2.3866    1.1814    3.1398 H   0  0  0  0  0  0  0  0  0 42  0  0
   -2.0617   -0.5642   -1.3188 C   0  0  0  0  0  0  0  0  0  4  0  0
   -1.9719   -0.2445   -0.2977 H   0  0  0  0  0  0  0  0  0 11  0  0
   -3.2482   -1.1147   -1.7539 C   0  0  0  0  0  0  0  0  0  5  0  0
   -4.1044   -1.1887   -1.1078 H   0  0  0  0  0  0  0  0  0 10  0  0
   -3.3655   -1.5761   -3.0664 C   0  0  0  0  0  0  0  0  0  6  0  0
   -4.6469   -2.1311   -3.4374 N   0  0  0  0  0  0  0  0  0  7  0  0
   -5.5949   -1.7873   -2.7605 O   0  0  0  0  0  0  0  0  0  8  0  0
   -4.7149   -2.8788   -4.3726 O   0  0  0  0  0  0  0  0  0  9  0  0
   -1.4635   -1.7269   -5.9111 H   0  0  0  0  0  0  0  0  0 52  0  0
   -2.4378   -3.1038   -5.3662 H   0  0  0  0  0  0  0  0  0 53  0  0
   -3.2414   -1.6365   -5.8694 H   0  0  0  0  0  0  0  0  0 54  0  0
  1  2  1  0
  2  3  4  0
  3  4  1  0
  3  5  4  0
  5  6  1  0
  6  7  2  0
  6  8  1  0
  8  9  1  0
  8 10  1  0
 10 11  1  0
 10 12  1  0
 13 10  1  6
 13 14  1  0
 14 15  1  0
 15 16  1  0
 15 17  1  0
 15 18  1  0
 18 19  1  0
 18 20  1  0
 18 21  1  0
 21 22  1  0
 21 23  1  0
 21 24  1  0
 24 25  1  0
 24 26  1  0
 24 27  1  0
 27 28  1  0
 27 29  1  0
 13 30  1  0
 30 31  1  0
 30 32  1  0
 30 33  1  0
 33 34  1  0
 33 35  1  0
 33 36  1  0
 36 37  1  0
 36 38  1  0
 36 39  1  0
 39 40  1  0
 39 41  1  0
 39 42  1  0
 42 43  1  0
 42 44  1  0
  5 45  4  0
 45 46  1  0
 45 47  4  0
 47 48  1  0
 47 49  4  0
 49 50  1  0
 50 51  2  0
 50 52  1  0
  1 53  1  0
  1 54  1  0
  1 55  1  0
 49  2  4  0
 42 13  1  0
 27 14  1  0
M  CHG  2  50   1  52  -1
M  END
>  <sample_id>  (560)
train::Cc1cc(C(=O)NCC2(N3CCCCC3)CCCCC2)ccc1[N+](=O)[O-]__gen0001

>  <partition>  (560)
BAT_EXTERNAL_CONFIRM

>  <method>  (560)
BA_seed193

>  <candidate>  (560)
primary

$$$$
train::Cc1cc(C(=O)NCC2(N3CCCCC3)CCCCC2)ccc1[N+](=O)[O-]__gen0002
     RDKit          3D

 55 57  0  0  0  0  0  0  0  0999 V2000
   -2.7846   -4.0482   -2.1094 C   0  0  0  0  0  0  0  0  0  0  0  0
   -3.0620   -3.3143   -0.8122 C   0  0  0  0  0  0  0  0  0  1  0  0
   -2.5824   -2.0315   -0.6474 C   0  0  0  0  0  0  0  0  0  2  0  0
   -2.0227   -1.5948   -1.4604 H   0  0  0  0  0  0  0  0  0 51  0  0
   -2.8262   -1.3038    0.5133 C   0  0  0  0  0  0  0  0  0  3  0  0
   -2.3415    0.0911    0.7170 C   0  0  0  0  0  0  0  0  0 12  0  0
   -2.9319    0.8652    1.4676 O   0  0  0  0  0  0  0  0  0 13  0  0
   -1.2526    0.4305    0.0232 N   0  0  0  0  0  0  0  0  0 14  0  0
   -0.7011   -0.2484   -0.4704 H   0  0  0  0  0  0  0  0  0 15  0  0
   -0.5670    1.6883    0.2358 C   0  0  0  0  0  0  0  0  0 16  0  0
   -0.7601    2.3571   -0.6013 H   0  0  0  0  0  0  0  0  0 17  0  0
   -0.9935    2.1345    1.1336 H   0  0  0  0  0  0  0  0  0 18  0  0
    0.9564    1.4345    0.3776 C   0  0  2  0  0  0  0  0  0 19  0  0
    1.3414    0.6655   -0.8179 N   0  0  0  0  0  0  0  0  0 20  0  0
    1.1977    1.2543   -2.1342 C   0  0  0  0  0  0  0  0  0 21  0  0
    0.3269    1.9148   -2.1534 H   0  0  0  0  0  0  0  0  0 22  0  0
    1.0130    0.4338   -2.8362 H   0  0  0  0  0  0  0  0  0 35  0  0
    2.4365    2.0164   -2.6199 C   0  0  0  0  0  0  0  0  0 23  0  0
    2.6448    2.8529   -1.9658 H   0  0  0  0  0  0  0  0  0 33  0  0
    2.2423    2.3947   -3.6276 H   0  0  0  0  0  0  0  0  0 34  0  0
    3.6297    1.0607   -2.6379 C   0  0  0  0  0  0  0  0  0 24  0  0
    4.5355    1.5835   -2.9415 H   0  0  0  0  0  0  0  0  0 31  0  0
    3.4510    0.2664   -3.3732 H   0  0  0  0  0  0  0  0  0 32  0  0
    3.8001    0.4471   -1.2495 C   0  0  0  0  0  0  0  0  0 25  0  0
    4.5986   -0.3030   -1.2645 H   0  0  0  0  0  0  0  0  0 29  0  0
    4.0621    1.2320   -0.5402 H   0  0  0  0  0  0  0  0  0 30  0  0
    2.4862   -0.2197   -0.8111 C   0  0  0  0  0  0  0  0  0 26  0  0
    2.2572   -1.0369   -1.5108 H   0  0  0  0  0  0  0  0  0 27  0  0
    2.6007   -0.6615    0.1833 H   0  0  0  0  0  0  0  0  0 28  0  0
    1.2334    0.6118    1.6517 C   0  0  0  0  0  0  0  0  0 36  0  0
    2.3126    0.4326    1.7125 H   0  0  0  0  0  0  0  0  0 49  0  0
    0.7220   -0.3487    1.5562 H   0  0  0  0  0  0  0  0  0 50  0  0
    0.8328    1.3100    2.9297 C   0  0  0  0  0  0  0  0  0 37  0  0
    1.0920    0.6619    3.7761 H   0  0  0  0  0  0  0  0  0 47  0  0
   -0.2421    1.4696    2.9734 H   0  0  0  0  0  0  0  0  0 48  0  0
    1.6008    2.6243    3.0457 C   0  0  0  0  0  0  0  0  0 38  0  0
    2.6769    2.4728    3.0999 H   0  0  0  0  0  0  0  0  0 45  0  0
    1.3051    3.1036    3.9941 H   0  0  0  0  0  0  0  0  0 46  0  0
    1.3165    3.5012    1.8420 C   0  0  0  0  0  0  0  0  0 39  0  0
    1.8966    4.4248    1.9104 H   0  0  0  0  0  0  0  0  0 43  0  0
    0.2619    3.7871    1.8446 H   0  0  0  0  0  0  0  0  0 44  0  0
    1.6828    2.7891    0.5384 C   0  0  0  0  0  0  0  0  0 40  0  0
    2.7601    2.5937    0.5318 H   0  0  0  0  0  0  0  0  0 41  0  0
    1.4436    3.4402   -0.2973 H   0  0  0  0  0  0  0  0  0 42  0  0
   -3.6108   -1.8785    1.5204 C   0  0  0  0  0  0  0  0  0  4  0  0
   -3.8111   -1.3001    2.4101 H   0  0  0  0  0  0  0  0  0 11  0  0
   -4.0939   -3.1623    1.3730 C   0  0  0  0  0  0  0  0  0  5  0  0
   -4.6697   -3.6130    2.1511 H   0  0  0  0  0  0  0  0  0 10  0  0
   -3.8326   -3.8778    0.2115 C   0  0  0  0  0  0  0  0  0  6  0  0
   -4.3560   -5.2098    0.1662 N   0  0  0  0  0  0  0  0  0  7  0  0
   -5.2669   -5.4835    0.9201 O   0  0  0  0  0  0  0  0  0  8  0  0
   -3.8780   -6.0029   -0.6318 O   0  0  0  0  0  0  0  0  0  9  0  0
   -3.7078   -4.4349   -2.5409 H   0  0  0  0  0  0  0  0  0 52  0  0
   -2.2968   -3.3774   -2.8188 H   0  0  0  0  0  0  0  0  0 53  0  0
   -2.1258   -4.8951   -1.9368 H   0  0  0  0  0  0  0  0  0 54  0  0
  1  2  1  0
  2  3  4  0
  3  4  1  0
  3  5  4  0
  5  6  1  0
  6  7  2  0
  6  8  1  0
  8  9  1  0
  8 10  1  0
 10 11  1  0
 10 12  1  0
 13 10  1  6
 13 14  1  0
 14 15  1  0
 15 16  1  0
 15 17  1  0
 15 18  1  0
 18 19  1  0
 18 20  1  0
 18 21  1  0
 21 22  1  0
 21 23  1  0
 21 24  1  0
 24 25  1  0
 24 26  1  0
 24 27  1  0
 27 28  1  0
 27 29  1  0
 13 30  1  0
 30 31  1  0
 30 32  1  0
 30 33  1  0
 33 34  1  0
 33 35  1  0
 33 36  1  0
 36 37  1  0
 36 38  1  0
 36 39  1  0
 39 40  1  0
 39 41  1  0
 39 42  1  0
 42 43  1  0
 42 44  1  0
  5 45  4  0
 45 46  1  0
 45 47  4  0
 47 48  1  0
 47 49  4  0
 49 50  1  0
 50 51  2  0
 50 52  1  0
  1 53  1  0
  1 54  1  0
  1 55  1  0
 49  2  4  0
 42 13  1  0
 27 14  1  0
M  CHG  2  50   1  52  -1
M  END
>  <sample_id>  (561)
train::Cc1cc(C(=O)NCC2(N3CCCCC3)CCCCC2)ccc1[N+](=O)[O-]__gen0002

>  <partition>  (561)
BAT_EXTERNAL_CONFIRM

>  <method>  (561)
BA_seed193

>  <candidate>  (561)
primary

$$$$
train::O=C(c1ccc([N+](=O)[O-])cc1)N1CC[NH+](Cc2ccccc2[N+](=O)[O-])CC1__gen0000
     RDKit          3D

 46 48  0  0  0  0  0  0  0  0999 V2000
    2.3816   -2.7112   -0.5687 O   0  0  0  0  0  0  0  0  0  0  0  0
    1.5028   -2.3023    0.1553 C   0  0  0  0  0  0  0  0  0  1  0  0
    0.2246   -2.1090   -0.3303 N   0  0  0  0  0  0  0  0  0  2  0  0
   -0.9231   -1.6457    0.3947 C   0  0  0  0  0  0  0  0  0  3  0  0
   -1.7222   -2.3949    0.3294 H   0  0  0  0  0  0  0  0  0  4  0  0
   -0.6682   -1.5148    1.4497 H   0  0  0  0  0  0  0  0  0 32  0  0
   -1.4151   -0.3189   -0.1940 C   0  0  0  0  0  0  0  0  0  5  0  0
   -0.6503    0.4487   -0.0514 H   0  0  0  0  0  0  0  0  0 30  0  0
   -2.3285    0.0264    0.3082 H   0  0  0  0  0  0  0  0  0 31  0  0
   -1.6824   -0.4882   -1.6568 N   0  0  1  0  0  0  0  0  0  6  0  0
   -2.3194    0.7399   -2.2515 C   0  0  0  0  0  0  0  0  0 13  0  0
   -1.4653    1.9838   -2.1797 C   0  0  0  0  0  0  0  0  0 14  0  0
   -0.4571    2.1623   -3.1250 C   0  0  0  0  0  0  0  0  0 15  0  0
   -0.3068    1.4062   -3.8804 H   0  0  0  0  0  0  0  0  0 26  0  0
    0.3291    3.2946   -3.1334 C   0  0  0  0  0  0  0  0  0 16  0  0
    1.1015    3.3945   -3.8724 H   0  0  0  0  0  0  0  0  0 25  0  0
    0.1014    4.3028   -2.2052 C   0  0  0  0  0  0  0  0  0 17  0  0
    0.7134    5.1904   -2.2177 H   0  0  0  0  0  0  0  0  0 24  0  0
   -0.9050    4.1783   -1.2843 C   0  0  0  0  0  0  0  0  0 18  0  0
   -1.1285    4.9592   -0.5796 H   0  0  0  0  0  0  0  0  0 23  0  0
   -1.6940    3.0229   -1.2543 C   0  0  0  0  0  0  0  0  0 19  0  0
   -2.7672    3.0162   -0.2975 N   0  0  0  0  0  0  0  0  0 20  0  0
   -3.2154    4.0901    0.0258 O   0  0  0  0  0  0  0  0  0 21  0  0
   -3.1676    1.9499    0.1262 O   0  0  0  0  0  0  0  0  0 22  0  0
   -2.5251    0.5327   -3.3037 H   0  0  0  0  0  0  0  0  0 27  0  0
   -3.2613    0.8903   -1.7295 H   0  0  0  0  0  0  0  0  0 28  0  0
   -2.4108   -1.2266   -1.7573 H   0  0  0  0  0  0  0  0  0 29  0  0
   -0.4725   -0.9797   -2.3428 C   0  0  0  0  0  0  0  0  0  7  0  0
    0.3220   -0.2401   -2.2073 H   0  0  0  0  0  0  0  0  0 11  0  0
   -0.6952   -1.0938   -3.4173 H   0  0  0  0  0  0  0  0  0 12  0  0
   -0.0400   -2.3120   -1.7364 C   0  0  0  0  0  0  0  0  0  8  0  0
    0.8831   -2.6647   -2.1952 H   0  0  0  0  0  0  0  0  0  9  0  0
   -0.8242   -3.0712   -1.8614 H   0  0  0  0  0  0  0  0  0 10  0  0
    1.7335   -1.9951    1.5821 C   0  0  0  0  0  0  0  0  0 33  0  0
    2.3352   -2.9830    2.3729 C   0  0  0  0  0  0  0  0  0 34  0  0
    2.5235   -3.9562    1.9503 H   0  0  0  0  0  0  0  0  0 45  0  0
    2.6565   -2.7370    3.6827 C   0  0  0  0  0  0  0  0  0 35  0  0
    3.0972   -3.4842    4.3162 H   0  0  0  0  0  0  0  0  0 44  0  0
    2.4082   -1.4740    4.2138 C   0  0  0  0  0  0  0  0  0 36  0  0
    2.7327   -1.1786    5.5893 N   0  0  0  0  0  0  0  0  0 41  0  0
    3.2976   -2.0423    6.2243 O   0  0  0  0  0  0  0  0  0 42  0  0
    2.4575   -0.0703    5.9985 O   0  0  0  0  0  0  0  0  0 43  0  0
    1.8686   -0.4676    3.4309 C   0  0  0  0  0  0  0  0  0 37  0  0
    1.7121    0.5159    3.8671 H   0  0  0  0  0  0  0  0  0 40  0  0
    1.5290   -0.7187    2.1117 C   0  0  0  0  0  0  0  0  0 38  0  0
    1.1336    0.0750    1.5039 H   0  0  0  0  0  0  0  0  0 39  0  0
  1  2  2  0
  2  3  1  0
  3  4  1  0
  4  5  1  0
  4  6  1  0
  4  7  1  0
  7  8  1  0
  7  9  1  0
  7 10  1  0
 10 11  1  0
 11 12  1  0
 12 13  4  0
 13 14  1  0
 13 15  4  0
 15 16  1  0
 15 17  4  0
 17 18  1  0
 17 19  4  0
 19 20  1  0
 19 21  4  0
 21 22  1  0
 22 23  2  0
 22 24  1  0
 11 25  1  0
 11 26  1  0
 10 27  1  1
 10 28  1  0
 28 29  1  0
 28 30  1  0
 28 31  1  0
 31 32  1  0
 31 33  1  0
  2 34  1  0
 34 35  4  0
 35 36  1  0
 35 37  4  0
 37 38  1  0
 37 39  4  0
 39 40  1  0
 40 41  2  0
 40 42  1  0
 39 43  4  0
 43 44  1  0
 43 45  4  0
 45 46  1  0
 31  3  1  0
 45 34  4  0
 21 12  4  0
M  CHG  5  10   1  22   1  24  -1  40   1  42  -1
M  END
>  <sample_id>  (562)
train::O=C(c1ccc([N+](=O)[O-])cc1)N1CC[NH+](Cc2ccccc2[N+](=O)[O-])CC1__gen0000

>  <partition>  (562)
BAT_EXTERNAL_CONFIRM

>  <method>  (562)
BA_seed193

>  <candidate>  (562)
primary

$$$$
train::O=C(c1ccc([N+](=O)[O-])cc1)N1CC[NH+](Cc2ccccc2[N+](=O)[O-])CC1__gen0001
     RDKit          3D

 46 48  0  0  0  0  0  0  0  0999 V2000
    0.7376    1.0349   -1.0962 O   0  0  0  0  0  0  0  0  0  0  0  0
    0.8528    1.4144    0.0394 C   0  0  0  0  0  0  0  0  0  1  0  0
    1.6075    0.6652    0.9578 N   0  0  0  0  0  0  0  0  0  2  0  0
    2.4311   -0.3625    0.3692 C   0  0  0  0  0  0  0  0  0  3  0  0
    3.3843   -0.4274    0.9016 H   0  0  0  0  0  0  0  0  0  4  0  0
    2.6428   -0.0801   -0.6722 H   0  0  0  0  0  0  0  0  0 32  0  0
    1.7027   -1.7084    0.4234 C   0  0  0  0  0  0  0  0  0  5  0  0
    2.0298   -2.3001    1.2897 H   0  0  0  0  0  0  0  0  0 30  0  0
    1.8855   -2.2963   -0.4858 H   0  0  0  0  0  0  0  0  0 31  0  0
    0.2511   -1.4725    0.5475 N   0  0  1  0  0  0  0  0  0  6  0  0
   -0.5629   -2.6958    0.3158 C   0  0  0  0  0  0  0  0  0 13  0  0
   -0.5144   -3.1301   -1.1312 C   0  0  0  0  0  0  0  0  0 14  0  0
    0.3413   -4.1792   -1.5004 C   0  0  0  0  0  0  0  0  0 15  0  0
    0.9626   -4.6446   -0.7553 H   0  0  0  0  0  0  0  0  0 26  0  0
    0.3543   -4.6586   -2.7921 C   0  0  0  0  0  0  0  0  0 16  0  0
    1.0154   -5.4726   -3.0663 H   0  0  0  0  0  0  0  0  0 25  0  0
   -0.4813   -4.1038   -3.7591 C   0  0  0  0  0  0  0  0  0 17  0  0
   -0.4751   -4.4766   -4.7765 H   0  0  0  0  0  0  0  0  0 24  0  0
   -1.3189   -3.0687   -3.4218 C   0  0  0  0  0  0  0  0  0 18  0  0
   -1.9795   -2.6230   -4.1462 H   0  0  0  0  0  0  0  0  0 23  0  0
   -1.3219   -2.5768   -2.1242 C   0  0  0  0  0  0  0  0  0 19  0  0
   -2.1857   -1.4652   -1.8570 N   0  0  0  0  0  0  0  0  0 20  0  0
   -1.8096   -0.6502   -0.9980 O   0  0  0  0  0  0  0  0  0 21  0  0
   -3.2146   -1.3971   -2.4663 O   0  0  0  0  0  0  0  0  0 22  0  0
   -0.1822   -3.4963    0.9582 H   0  0  0  0  0  0  0  0  0 27  0  0
   -1.5931   -2.4584    0.6018 H   0  0  0  0  0  0  0  0  0 28  0  0
   -0.0437   -0.7859   -0.2190 H   0  0  0  0  0  0  0  0  0 29  0  0
   -0.0611   -0.8449    1.8552 C   0  0  0  0  0  0  0  0  0  7  0  0
   -1.0533   -0.3847    1.7793 H   0  0  0  0  0  0  0  0  0 11  0  0
   -0.0652   -1.6160    2.6196 H   0  0  0  0  0  0  0  0  0 12  0  0
    1.0020    0.2498    2.1765 C   0  0  0  0  0  0  0  0  0  8  0  0
    1.7869   -0.1541    2.8270 H   0  0  0  0  0  0  0  0  0  9  0  0
    0.5170    1.0720    2.6974 H   0  0  0  0  0  0  0  0  0 10  0  0
    0.2824    2.6822    0.5484 C   0  0  0  0  0  0  0  0  0 33  0  0
   -0.8927    3.1426   -0.0314 C   0  0  0  0  0  0  0  0  0 34  0  0
   -1.3729    2.5482   -0.8146 H   0  0  0  0  0  0  0  0  0 45  0  0
   -1.4175    4.3601    0.3641 C   0  0  0  0  0  0  0  0  0 35  0  0
   -2.3487    4.7280   -0.0659 H   0  0  0  0  0  0  0  0  0 44  0  0
   -0.7597    5.0993    1.3234 C   0  0  0  0  0  0  0  0  0 36  0  0
   -1.3032    6.3531    1.7586 N   0  0  0  0  0  0  0  0  0 41  0  0
   -0.6416    7.0226    2.5206 O   0  0  0  0  0  0  0  0  0 42  0  0
   -2.3688    6.6932    1.3078 O   0  0  0  0  0  0  0  0  0 43  0  0
    0.4362    4.6639    1.8925 C   0  0  0  0  0  0  0  0  0 37  0  0
    0.9299    5.2727    2.6474 H   0  0  0  0  0  0  0  0  0 40  0  0
    0.9452    3.4300    1.5144 C   0  0  0  0  0  0  0  0  0 38  0  0
    1.8691    3.0979    1.9431 H   0  0  0  0  0  0  0  0  0 39  0  0
  1  2  2  0
  2  3  1  0
  3  4  1  0
  4  5  1  0
  4  6  1  0
  4  7  1  0
  7  8  1  0
  7  9  1  0
  7 10  1  0
 10 11  1  0
 11 12  1  0
 12 13  4  0
 13 14  1  0
 13 15  4  0
 15 16  1  0
 15 17  4  0
 17 18  1  0
 17 19  4  0
 19 20  1  0
 19 21  4  0
 21 22  1  0
 22 23  2  0
 22 24  1  0
 11 25  1  0
 11 26  1  0
 10 27  1  6
 10 28  1  0
 28 29  1  0
 28 30  1  0
 28 31  1  0
 31 32  1  0
 31 33  1  0
  2 34  1  0
 34 35  4  0
 35 36  1  0
 35 37  4  0
 37 38  1  0
 37 39  4  0
 39 40  1  0
 40 41  2  0
 40 42  1  0
 39 43  4  0
 43 44  1  0
 43 45  4  0
 45 46  1  0
 31  3  1  0
 45 34  4  0
 21 12  4  0
M  CHG  5  10   1  22   1  24  -1  40   1  42  -1
M  END
>  <sample_id>  (563)
train::O=C(c1ccc([N+](=O)[O-])cc1)N1CC[NH+](Cc2ccccc2[N+](=O)[O-])CC1__gen0001

>  <partition>  (563)
BAT_EXTERNAL_CONFIRM

>  <method>  (563)
BA_seed193

>  <candidate>  (563)
primary

$$$$
train::O=C(c1ccc([N+](=O)[O-])cc1)N1CC[NH+](Cc2ccccc2[N+](=O)[O-])CC1__gen0002
     RDKit          3D

 46 48  0  0  0  0  0  0  0  0999 V2000
   -3.1524   -0.7058   -1.5923 O   0  0  0  0  0  0  0  0  0  0  0  0
   -2.4530    0.2001   -1.2172 C   0  0  0  0  0  0  0  0  0  1  0  0
   -1.3911    0.5948   -2.0313 N   0  0  0  0  0  0  0  0  0  2  0  0
   -1.1331   -0.2351   -3.1875 C   0  0  0  0  0  0  0  0  0  3  0  0
   -2.0797   -0.6338   -3.5371 H   0  0  0  0  0  0  0  0  0  4  0  0
   -0.6871    0.3884   -3.9688 H   0  0  0  0  0  0  0  0  0 32  0  0
   -0.1860   -1.3743   -2.7759 C   0  0  0  0  0  0  0  0  0  5  0  0
   -0.7529   -2.2752   -2.5101 H   0  0  0  0  0  0  0  0  0 30  0  0
    0.4917   -1.6274   -3.5896 H   0  0  0  0  0  0  0  0  0 31  0  0
    0.5955   -0.9436   -1.5855 N   0  0  1  0  0  0  0  0  0  6  0  0
    1.6550   -1.9060   -1.2357 C   0  0  0  0  0  0  0  0  0 13  0  0
    2.5800   -1.5314   -0.0944 C   0  0  0  0  0  0  0  0  0 14  0  0
    3.9060   -1.9366   -0.2685 C   0  0  0  0  0  0  0  0  0 15  0  0
    4.2021   -2.4319   -1.1766 H   0  0  0  0  0  0  0  0  0 26  0  0
    4.8802   -1.6934    0.6886 C   0  0  0  0  0  0  0  0  0 16  0  0
    5.8904   -2.0171    0.5254 H   0  0  0  0  0  0  0  0  0 25  0  0
    4.5423   -1.0496    1.8828 C   0  0  0  0  0  0  0  0  0 17  0  0
    5.2776   -0.8657    2.6321 H   0  0  0  0  0  0  0  0  0 24  0  0
    3.2394   -0.6646    2.0731 C   0  0  0  0  0  0  0  0  0 18  0  0
    2.9389   -0.1474    2.9767 H   0  0  0  0  0  0  0  0  0 23  0  0
    2.2354   -0.9040    1.1083 C   0  0  0  0  0  0  0  0  0 19  0  0
    0.9367   -0.4167    1.4524 N   0  0  0  0  0  0  0  0  0 20  0  0
   -0.0413   -0.8794    0.8459 O   0  0  0  0  0  0  0  0  0 21  0  0
    0.8660    0.4417    2.2763 O   0  0  0  0  0  0  0  0  0 22  0  0
    2.2715   -2.0665   -2.1260 H   0  0  0  0  0  0  0  0  0 27  0  0
    1.1639   -2.8753   -1.0047 H   0  0  0  0  0  0  0  0  0 28  0  0
   -0.0985   -0.9520   -0.7660 H   0  0  0  0  0  0  0  0  0 29  0  0
    1.0262    0.4518   -1.7599 C   0  0  0  0  0  0  0  0  0  7  0  0
    1.4669    0.5357   -2.7642 H   0  0  0  0  0  0  0  0  0 11  0  0
    1.7919    0.7004   -1.0336 H   0  0  0  0  0  0  0  0  0 12  0  0
   -0.2199    1.3413   -1.6143 C   0  0  0  0  0  0  0  0  0  8  0  0
   -0.1003    2.2352   -2.2242 H   0  0  0  0  0  0  0  0  0  9  0  0
   -0.3263    1.6299   -0.5686 H   0  0  0  0  0  0  0  0  0 10  0  0
   -2.6644    0.8643    0.0786 C   0  0  0  0  0  0  0  0  0 33  0  0
   -3.1443    0.0319    1.1042 C   0  0  0  0  0  0  0  0  0 34  0  0
   -3.3372   -0.9977    0.8862 H   0  0  0  0  0  0  0  0  0 45  0  0
   -3.3857    0.5599    2.3576 C   0  0  0  0  0  0  0  0  0 35  0  0
   -3.7413   -0.0526    3.1736 H   0  0  0  0  0  0  0  0  0 44  0  0
   -3.1375    1.9036    2.5811 C   0  0  0  0  0  0  0  0  0 36  0  0
   -3.3438    2.4478    3.9197 N   0  0  0  0  0  0  0  0  0 41  0  0
   -4.3923    2.1803    4.4508 O   0  0  0  0  0  0  0  0  0 42  0  0
   -2.4403    3.0802    4.3952 O   0  0  0  0  0  0  0  0  0 43  0  0
   -2.6642    2.7344    1.5710 C   0  0  0  0  0  0  0  0  0 37  0  0
   -2.5230    3.7711    1.7879 H   0  0  0  0  0  0  0  0  0 40  0  0
   -2.4532    2.2201    0.3348 C   0  0  0  0  0  0  0  0  0 38  0  0
   -2.1088    2.8704   -0.4701 H   0  0  0  0  0  0  0  0  0 39  0  0
  1  2  2  0
  2  3  1  0
  3  4  1  0
  4  5  1  0
  4  6  1  0
  4  7  1  0
  7  8  1  0
  7  9  1  0
  7 10  1  0
 10 11  1  0
 11 12  1  0
 12 13  4  0
 13 14  1  0
 13 15  4  0
 15 16  1  0
 15 17  4  0
 17 18  1  0
 17 19  4  0
 19 20  1  0
 19 21  4  0
 21 22  1  0
 22 23  2  0
 22 24  1  0
 11 25  1  0
 11 26  1  0
 10 27  1  1
 10 28  1  0
 28 29  1  0
 28 30  1  0
 28 31  1  0
 31 32  1  0
 31 33  1  0
  2 34  1  0
 34 35  4  0
 35 36  1  0
 35 37  4  0
 37 38  1  0
 37 39  4  0
 39 40  1  0
 40 41  2  0
 40 42  1  0
 39 43  4  0
 43 44  1  0
 43 45  4  0
 45 46  1  0
 31  3  1  0
 45 34  4  0
 21 12  4  0
M  CHG  5  10   1  22   1  24  -1  40   1  42  -1
M  END
>  <sample_id>  (564)
train::O=C(c1ccc([N+](=O)[O-])cc1)N1CC[NH+](Cc2ccccc2[N+](=O)[O-])CC1__gen0002

>  <partition>  (564)
BAT_EXTERNAL_CONFIRM

>  <method>  (564)
BA_seed193

>  <candidate>  (564)
primary

$$$$
train::O=C(Nc1cccc(C(=O)N2CCOCC2)c1)c1ccc([N+](=O)[O-])cc1__gen0000
     RDKit          3D

 43 45  0  0  0  0  0  0  0  0999 V2000
   -4.1960   -1.2736    2.3740 O   0  0  0  0  0  0  0  0  0  0  0  0
   -3.0792   -1.2374    1.8972 C   0  0  0  0  0  0  0  0  0  1  0  0
   -2.0501   -1.8938    2.4919 N   0  0  0  0  0  0  0  0  0  2  0  0
   -0.6804   -1.7965    2.2669 C   0  0  0  0  0  0  0  0  0  3  0  0
   -0.0876   -0.5959    1.8621 C   0  0  0  0  0  0  0  0  0  4  0  0
   -0.6847    0.2969    1.7595 H   0  0  0  0  0  0  0  0  0 28  0  0
    1.2784   -0.5368    1.6353 C   0  0  0  0  0  0  0  0  0  5  0  0
    1.8955    0.8084    1.2838 C   0  0  0  0  0  0  0  0  0 12  0  0
    1.8924    1.7274    2.0778 O   0  0  0  0  0  0  0  0  0 13  0  0
    2.4890    0.8833    0.0787 N   0  0  0  0  0  0  0  0  0 14  0  0
    2.3354   -0.0611   -1.0164 C   0  0  0  0  0  0  0  0  0 15  0  0
    3.3223   -0.2932   -1.4104 H   0  0  0  0  0  0  0  0  0 16  0  0
    1.8603   -0.9773   -0.6580 H   0  0  0  0  0  0  0  0  0 27  0  0
    1.4823    0.5823   -2.1132 C   0  0  0  0  0  0  0  0  0 17  0  0
    0.4758    0.7640   -1.7196 H   0  0  0  0  0  0  0  0  0 18  0  0
    1.4274   -0.0607   -2.9907 H   0  0  0  0  0  0  0  0  0 26  0  0
    2.0614    1.7902   -2.5510 O   0  0  0  0  0  0  0  0  0 19  0  0
    2.1806    2.7181   -1.4965 C   0  0  0  0  0  0  0  0  0 20  0  0
    2.6485    3.6061   -1.9271 H   0  0  0  0  0  0  0  0  0 21  0  0
    1.1845    2.9551   -1.1049 H   0  0  0  0  0  0  0  0  0 25  0  0
    3.0494    2.1428   -0.3767 C   0  0  0  0  0  0  0  0  0 22  0  0
    3.0815    2.8225    0.4817 H   0  0  0  0  0  0  0  0  0 23  0  0
    4.0689    1.9633   -0.7377 H   0  0  0  0  0  0  0  0  0 24  0  0
    2.0771   -1.6527    1.8194 C   0  0  0  0  0  0  0  0  0  6  0  0
    3.1369   -1.5929    1.6575 H   0  0  0  0  0  0  0  0  0 11  0  0
    1.4996   -2.8328    2.2371 C   0  0  0  0  0  0  0  0  0  7  0  0
    2.1183   -3.7098    2.4171 H   0  0  0  0  0  0  0  0  0 10  0  0
    0.1377   -2.9104    2.4720 C   0  0  0  0  0  0  0  0  0  8  0  0
   -0.3115   -3.8222    2.8056 H   0  0  0  0  0  0  0  0  0  9  0  0
   -2.3295   -2.4801    3.2740 H   0  0  0  0  0  0  0  0  0 29  0  0
   -2.7905   -0.5663    0.5876 C   0  0  0  0  0  0  0  0  0 30  0  0
   -2.0620   -1.2220   -0.4007 C   0  0  0  0  0  0  0  0  0 31  0  0
   -1.6499   -2.2033   -0.2159 H   0  0  0  0  0  0  0  0  0 42  0  0
   -1.8652   -0.6129   -1.6198 C   0  0  0  0  0  0  0  0  0 32  0  0
   -1.3115   -1.1157   -2.4082 H   0  0  0  0  0  0  0  0  0 41  0  0
   -2.3948    0.6521   -1.8466 C   0  0  0  0  0  0  0  0  0 33  0  0
   -2.1377    1.2899   -3.1182 N   0  0  0  0  0  0  0  0  0 38  0  0
   -2.7992    2.2522   -3.4458 O   0  0  0  0  0  0  0  0  0 39  0  0
   -1.2758    0.7658   -3.8181 O   0  0  0  0  0  0  0  0  0 40  0  0
   -3.1461    1.3017   -0.8682 C   0  0  0  0  0  0  0  0  0 34  0  0
   -3.5459    2.2856   -1.0713 H   0  0  0  0  0  0  0  0  0 37  0  0
   -3.3597    0.6759    0.3373 C   0  0  0  0  0  0  0  0  0 35  0  0
   -3.9462    1.1640    1.0983 H   0  0  0  0  0  0  0  0  0 36  0  0
  1  2  2  0
  2  3  1  0
  3  4  1  0
  4  5  4  0
  5  6  1  0
  5  7  4  0
  7  8  1  0
  8  9  2  0
  8 10  1  0
 10 11  1  0
 11 12  1  0
 11 13  1  0
 11 14  1  0
 14 15  1  0
 14 16  1  0
 14 17  1  0
 17 18  1  0
 18 19  1  0
 18 20  1  0
 18 21  1  0
 21 22  1  0
 21 23  1  0
  7 24  4  0
 24 25  1  0
 24 26  4  0
 26 27  1  0
 26 28  4  0
 28 29  1  0
  3 30  1  0
  2 31  1  0
 31 32  4  0
 32 33  1  0
 32 34  4  0
 34 35  1  0
 34 36  4  0
 36 37  1  0
 37 38  2  0
 37 39  1  0
 36 40  4  0
 40 41  1  0
 40 42  4  0
 42 43  1  0
 28  4  4  0
 42 31  4  0
 21 10  1  0
M  CHG  2  37   1  39  -1
M  END
>  <sample_id>  (565)
train::O=C(Nc1cccc(C(=O)N2CCOCC2)c1)c1ccc([N+](=O)[O-])cc1__gen0000

>  <partition>  (565)
BAT_EXTERNAL_CONFIRM

>  <method>  (565)
BA_seed193

>  <candidate>  (565)
primary

$$$$
train::O=C(Nc1cccc(C(=O)N2CCOCC2)c1)c1ccc([N+](=O)[O-])cc1__gen0001
     RDKit          3D

 43 45  0  0  0  0  0  0  0  0999 V2000
   -1.3794    3.8972   -2.4149 O   0  0  0  0  0  0  0  0  0  0  0  0
   -1.2357    2.7516   -2.0556 C   0  0  0  0  0  0  0  0  0  1  0  0
    0.0103    2.2248   -1.8759 N   0  0  0  0  0  0  0  0  0  2  0  0
    0.3987    0.8934   -1.6486 C   0  0  0  0  0  0  0  0  0  3  0  0
    1.5026    0.6453   -0.8467 C   0  0  0  0  0  0  0  0  0  4  0  0
    2.0553    1.4822   -0.4198 H   0  0  0  0  0  0  0  0  0 28  0  0
    1.9178   -0.6556   -0.5917 C   0  0  0  0  0  0  0  0  0  5  0  0
    3.1350   -0.9402    0.2218 C   0  0  0  0  0  0  0  0  0 12  0  0
    4.0940   -1.5219   -0.2521 O   0  0  0  0  0  0  0  0  0 13  0  0
    3.1172   -0.5022    1.5136 N   0  0  0  0  0  0  0  0  0 14  0  0
    4.2547   -0.7402    2.3691 C   0  0  0  0  0  0  0  0  0 15  0  0
    4.5827    0.2014    2.8166 H   0  0  0  0  0  0  0  0  0 16  0  0
    5.0607   -1.1651    1.7590 H   0  0  0  0  0  0  0  0  0 27  0  0
    3.8594   -1.7288    3.4820 C   0  0  0  0  0  0  0  0  0 17  0  0
    3.6223   -2.7057    3.0310 H   0  0  0  0  0  0  0  0  0 18  0  0
    4.6615   -1.8445    4.2114 H   0  0  0  0  0  0  0  0  0 26  0  0
    2.7447   -1.2557    4.1988 O   0  0  0  0  0  0  0  0  0 19  0  0
    1.6402   -1.0548    3.3490 C   0  0  0  0  0  0  0  0  0 20  0  0
    1.3346   -2.0062    2.8881 H   0  0  0  0  0  0  0  0  0 21  0  0
    0.8307   -0.6829    3.9811 H   0  0  0  0  0  0  0  0  0 25  0  0
    1.9544   -0.0449    2.2422 C   0  0  0  0  0  0  0  0  0 22  0  0
    2.1939    0.9303    2.6866 H   0  0  0  0  0  0  0  0  0 23  0  0
    1.1008    0.0619    1.5728 H   0  0  0  0  0  0  0  0  0 24  0  0
    1.2354   -1.7175   -1.1795 C   0  0  0  0  0  0  0  0  0  6  0  0
    1.5651   -2.7284   -0.9868 H   0  0  0  0  0  0  0  0  0 11  0  0
    0.1375   -1.4665   -1.9881 C   0  0  0  0  0  0  0  0  0  7  0  0
   -0.3887   -2.2982   -2.4428 H   0  0  0  0  0  0  0  0  0 10  0  0
   -0.2803   -0.1731   -2.2290 C   0  0  0  0  0  0  0  0  0  8  0  0
   -1.1161    0.0028   -2.8845 H   0  0  0  0  0  0  0  0  0  9  0  0
    0.7649    2.8995   -1.9432 H   0  0  0  0  0  0  0  0  0 29  0  0
   -2.3899    1.8694   -1.7327 C   0  0  0  0  0  0  0  0  0 30  0  0
   -3.4804    1.8580   -2.6006 C   0  0  0  0  0  0  0  0  0 31  0  0
   -3.4482    2.4630   -3.4961 H   0  0  0  0  0  0  0  0  0 42  0  0
   -4.5928    1.0945   -2.3156 C   0  0  0  0  0  0  0  0  0 32  0  0
   -5.4481    1.0694   -2.9772 H   0  0  0  0  0  0  0  0  0 41  0  0
   -4.6202    0.3561   -1.1417 C   0  0  0  0  0  0  0  0  0 33  0  0
   -5.7692   -0.4548   -0.8406 N   0  0  0  0  0  0  0  0  0 38  0  0
   -5.7558   -1.1001    0.1894 O   0  0  0  0  0  0  0  0  0 39  0  0
   -6.6687   -0.4562   -1.6504 O   0  0  0  0  0  0  0  0  0 40  0  0
   -3.5544    0.3945   -0.2499 C   0  0  0  0  0  0  0  0  0 34  0  0
   -3.6063   -0.1785    0.6629 H   0  0  0  0  0  0  0  0  0 37  0  0
   -2.4307    1.1362   -0.5541 C   0  0  0  0  0  0  0  0  0 35  0  0
   -1.6092    1.1908    0.1428 H   0  0  0  0  0  0  0  0  0 36  0  0
  1  2  2  0
  2  3  1  0
  3  4  1  0
  4  5  4  0
  5  6  1  0
  5  7  4  0
  7  8  1  0
  8  9  2  0
  8 10  1  0
 10 11  1  0
 11 12  1  0
 11 13  1  0
 11 14  1  0
 14 15  1  0
 14 16  1  0
 14 17  1  0
 17 18  1  0
 18 19  1  0
 18 20  1  0
 18 21  1  0
 21 22  1  0
 21 23  1  0
  7 24  4  0
 24 25  1  0
 24 26  4  0
 26 27  1  0
 26 28  4  0
 28 29  1  0
  3 30  1  0
  2 31  1  0
 31 32  4  0
 32 33  1  0
 32 34  4  0
 34 35  1  0
 34 36  4  0
 36 37  1  0
 37 38  2  0
 37 39  1  0
 36 40  4  0
 40 41  1  0
 40 42  4  0
 42 43  1  0
 28  4  4  0
 42 31  4  0
 21 10  1  0
M  CHG  2  37   1  39  -1
M  END
>  <sample_id>  (566)
train::O=C(Nc1cccc(C(=O)N2CCOCC2)c1)c1ccc([N+](=O)[O-])cc1__gen0001

>  <partition>  (566)
BAT_EXTERNAL_CONFIRM

>  <method>  (566)
BA_seed193

>  <candidate>  (566)
primary

$$$$
train::O=C(Nc1cccc(C(=O)N2CCOCC2)c1)c1ccc([N+](=O)[O-])cc1__gen0002
     RDKit          3D

 43 45  0  0  0  0  0  0  0  0999 V2000
    1.6093    3.4682    0.2177 O   0  0  0  0  0  0  0  0  0  0  0  0
    2.0229    2.3313    0.2846 C   0  0  0  0  0  0  0  0  0  1  0  0
    1.2517    1.2290    0.4637 N   0  0  0  0  0  0  0  0  0  2  0  0
   -0.1176    1.1324    0.6570 C   0  0  0  0  0  0  0  0  0  3  0  0
   -0.7004   -0.1332    0.6975 C   0  0  0  0  0  0  0  0  0  4  0  0
   -0.0865   -1.0193    0.5695 H   0  0  0  0  0  0  0  0  0 28  0  0
   -2.0631   -0.2960    0.9047 C   0  0  0  0  0  0  0  0  0  5  0  0
   -2.6008   -1.6880    0.9978 C   0  0  0  0  0  0  0  0  0 12  0  0
   -2.0497   -2.5070    1.7294 O   0  0  0  0  0  0  0  0  0 13  0  0
   -3.6994   -1.9972    0.2832 N   0  0  0  0  0  0  0  0  0 14  0  0
   -4.2818   -3.3167    0.3741 C   0  0  0  0  0  0  0  0  0 15  0  0
   -3.7726   -3.8315    1.1887 H   0  0  0  0  0  0  0  0  0 16  0  0
   -5.3466   -3.2224    0.5741 H   0  0  0  0  0  0  0  0  0 27  0  0
   -4.0780   -4.0441   -0.9611 C   0  0  0  0  0  0  0  0  0 17  0  0
   -4.5964   -5.0129   -0.9452 H   0  0  0  0  0  0  0  0  0 18  0  0
   -3.0032   -4.2164   -1.1187 H   0  0  0  0  0  0  0  0  0 26  0  0
   -4.6309   -3.3090   -2.0219 O   0  0  0  0  0  0  0  0  0 19  0  0
   -4.0247   -2.0422   -2.1269 C   0  0  0  0  0  0  0  0  0 20  0  0
   -4.5058   -1.5283   -2.9583 H   0  0  0  0  0  0  0  0  0 21  0  0
   -2.9480   -2.1394   -2.3285 H   0  0  0  0  0  0  0  0  0 25  0  0
   -4.2231   -1.2259   -0.8383 C   0  0  0  0  0  0  0  0  0 22  0  0
   -5.2915   -1.0541   -0.6713 H   0  0  0  0  0  0  0  0  0 23  0  0
   -3.7125   -0.2604   -0.9095 H   0  0  0  0  0  0  0  0  0 24  0  0
   -2.8560    0.8312    1.1001 C   0  0  0  0  0  0  0  0  0  6  0  0
   -3.9131    0.7098    1.3087 H   0  0  0  0  0  0  0  0  0 11  0  0
   -2.2865    2.0898    1.0663 C   0  0  0  0  0  0  0  0  0  7  0  0
   -2.9185    2.9544    1.2140 H   0  0  0  0  0  0  0  0  0 10  0  0
   -0.9394    2.2433    0.8283 C   0  0  0  0  0  0  0  0  0  8  0  0
   -0.5028    3.2343    0.7962 H   0  0  0  0  0  0  0  0  0  9  0  0
    1.7232    0.3293    0.4240 H   0  0  0  0  0  0  0  0  0 29  0  0
    3.4908    2.0296    0.1393 C   0  0  0  0  0  0  0  0  0 30  0  0
    4.1174    1.0000    0.8603 C   0  0  0  0  0  0  0  0  0 31  0  0
    3.5668    0.3708    1.5425 H   0  0  0  0  0  0  0  0  0 42  0  0
    5.4788    0.7899    0.7070 C   0  0  0  0  0  0  0  0  0 32  0  0
    5.9859    0.0206    1.2685 H   0  0  0  0  0  0  0  0  0 41  0  0
    6.1978    1.6183   -0.1356 C   0  0  0  0  0  0  0  0  0 33  0  0
    7.6153    1.4000   -0.2789 N   0  0  0  0  0  0  0  0  0 38  0  0
    8.1224    0.4851    0.3440 O   0  0  0  0  0  0  0  0  0 39  0  0
    8.2340    2.1341   -1.0424 O   0  0  0  0  0  0  0  0  0 40  0  0
    5.5870    2.6541   -0.8399 C   0  0  0  0  0  0  0  0  0 34  0  0
    6.1882    3.2760   -1.4824 H   0  0  0  0  0  0  0  0  0 37  0  0
    4.2328    2.8598   -0.6763 C   0  0  0  0  0  0  0  0  0 35  0  0
    3.7247    3.6525   -1.2060 H   0  0  0  0  0  0  0  0  0 36  0  0
  1  2  2  0
  2  3  1  0
  3  4  1  0
  4  5  4  0
  5  6  1  0
  5  7  4  0
  7  8  1  0
  8  9  2  0
  8 10  1  0
 10 11  1  0
 11 12  1  0
 11 13  1  0
 11 14  1  0
 14 15  1  0
 14 16  1  0
 14 17  1  0
 17 18  1  0
 18 19  1  0
 18 20  1  0
 18 21  1  0
 21 22  1  0
 21 23  1  0
  7 24  4  0
 24 25  1  0
 24 26  4  0
 26 27  1  0
 26 28  4  0
 28 29  1  0
  3 30  1  0
  2 31  1  0
 31 32  4  0
 32 33  1  0
 32 34  4  0
 34 35  1  0
 34 36  4  0
 36 37  1  0
 37 38  2  0
 37 39  1  0
 36 40  4  0
 40 41  1  0
 40 42  4  0
 42 43  1  0
 28  4  4  0
 42 31  4  0
 21 10  1  0
M  CHG  2  37   1  39  -1
M  END
>  <sample_id>  (567)
train::O=C(Nc1cccc(C(=O)N2CCOCC2)c1)c1ccc([N+](=O)[O-])cc1__gen0002

>  <partition>  (567)
BAT_EXTERNAL_CONFIRM

>  <method>  (567)
BA_seed193

>  <candidate>  (567)
primary

$$$$
train::O=C(Cn1cnc2cc([N+](=O)[O-])ccc2c1=O)NC(=O)NCc1ccccc1__gen0000
     RDKit          3D

 43 45  0  0  0  0  0  0  0  0999 V2000
   -0.2774    0.4991    2.2201 O   0  0  0  0  0  0  0  0  0  0  0  0
   -0.3799    0.7920    1.0541 C   0  0  0  0  0  0  0  0  0  1  0  0
    0.5329    0.5202    0.0879 N   0  0  0  0  0  0  0  0  0  2  0  0
    1.8062   -0.1192    0.2247 C   0  0  0  0  0  0  0  0  0  3  0  0
    2.5274   -0.1577   -0.7493 O   0  0  0  0  0  0  0  0  0  4  0  0
    2.0576   -0.6130    1.4298 N   0  0  0  0  0  0  0  0  0  5  0  0
    1.3904   -0.4722    2.1735 H   0  0  0  0  0  0  0  0  0  6  0  0
    3.3500   -1.2123    1.7606 C   0  0  0  0  0  0  0  0  0  7  0  0
    4.0725   -0.3504    2.7737 C   0  0  0  0  0  0  0  0  0  8  0  0
    4.5181    0.9116    2.4144 C   0  0  0  0  0  0  0  0  0  9  0  0
    4.3467    1.2602    1.4065 H   0  0  0  0  0  0  0  0  0 18  0  0
    5.1614    1.7146    3.3393 C   0  0  0  0  0  0  0  0  0 10  0  0
    5.4893    2.7042    3.0554 H   0  0  0  0  0  0  0  0  0 17  0  0
    5.3593    1.2596    4.6351 C   0  0  0  0  0  0  0  0  0 11  0  0
    5.8554    1.8847    5.3571 H   0  0  0  0  0  0  0  0  0 16  0  0
    4.9149    0.0024    4.9945 C   0  0  0  0  0  0  0  0  0 12  0  0
    5.0698   -0.3633    6.0014 H   0  0  0  0  0  0  0  0  0 15  0  0
    4.2807   -0.8081    4.0652 C   0  0  0  0  0  0  0  0  0 13  0  0
    3.9249   -1.7941    4.3616 H   0  0  0  0  0  0  0  0  0 14  0  0
    3.1842   -2.2158    2.1479 H   0  0  0  0  0  0  0  0  0 19  0  0
    3.9211   -1.2661    0.8321 H   0  0  0  0  0  0  0  0  0 20  0  0
    0.3224    0.7531   -0.8733 H   0  0  0  0  0  0  0  0  0 21  0  0
   -1.6167    1.5664    0.5409 C   0  0  0  0  0  0  0  0  0 22  0  0
   -2.1337    1.0655   -0.7191 N   0  0  0  0  0  0  0  0  0 23  0  0
   -1.7197    1.6138   -1.8930 C   0  0  0  0  0  0  0  0  0 24  0  0
   -1.0220    2.4250   -1.8450 H   0  0  0  0  0  0  0  0  0 40  0  0
   -2.1143    1.2200   -3.0428 N   0  0  0  0  0  0  0  0  0 25  0  0
   -3.0367    0.2215   -3.1198 C   0  0  0  0  0  0  0  0  0 26  0  0
   -3.4725   -0.2219   -4.3757 C   0  0  0  0  0  0  0  0  0 27  0  0
   -3.0895    0.2417   -5.2676 H   0  0  0  0  0  0  0  0  0 39  0  0
   -4.4208   -1.2226   -4.4361 C   0  0  0  0  0  0  0  0  0 28  0  0
   -4.8754   -1.6807   -5.7367 N   0  0  0  0  0  0  0  0  0 36  0  0
   -5.6957   -2.5827   -5.7534 O   0  0  0  0  0  0  0  0  0 37  0  0
   -4.4463   -1.1131   -6.7151 O   0  0  0  0  0  0  0  0  0 38  0  0
   -4.9335   -1.8406   -3.2987 C   0  0  0  0  0  0  0  0  0 29  0  0
   -5.6654   -2.6286   -3.4019 H   0  0  0  0  0  0  0  0  0 35  0  0
   -4.5050   -1.4247   -2.0578 C   0  0  0  0  0  0  0  0  0 30  0  0
   -4.8847   -1.8579   -1.1433 H   0  0  0  0  0  0  0  0  0 34  0  0
   -3.5544   -0.4113   -1.9547 C   0  0  0  0  0  0  0  0  0 31  0  0
   -3.0762    0.0273   -0.6499 C   0  0  0  0  0  0  0  0  0 32  0  0
   -3.4210   -0.4123    0.4186 O   0  0  0  0  0  0  0  0  0 33  0  0
   -2.3984    1.4673    1.3029 H   0  0  0  0  0  0  0  0  0 41  0  0
   -1.3459    2.6184    0.4360 H   0  0  0  0  0  0  0  0  0 42  0  0
  1  2  2  0
  2  3  1  0
  3  4  1  0
  4  5  2  0
  4  6  1  0
  6  7  1  0
  6  8  1  0
  8  9  1  0
  9 10  4  0
 10 11  1  0
 10 12  4  0
 12 13  1  0
 12 14  4  0
 14 15  1  0
 14 16  4  0
 16 17  1  0
 16 18  4  0
 18 19  1  0
  8 20  1  0
  8 21  1  0
  3 22  1  0
  2 23  1  0
 23 24  1  0
 24 25  4  0
 25 26  1  0
 25 27  4  0
 27 28  4  0
 28 29  4  0
 29 30  1  0
 29 31  4  0
 31 32  1  0
 32 33  2  0
 32 34  1  0
 31 35  4  0
 35 36  1  0
 35 37  4  0
 37 38  1  0
 37 39  4  0
 39 40  4  0
 40 41  2  0
 23 42  1  0
 23 43  1  0
 18  9  4  0
 40 24  4  0
 39 28  4  0
M  CHG  2  32   1  34  -1
M  END
>  <sample_id>  (568)
train::O=C(Cn1cnc2cc([N+](=O)[O-])ccc2c1=O)NC(=O)NCc1ccccc1__gen0000

>  <partition>  (568)
BAT_EXTERNAL_CONFIRM

>  <method>  (568)
BA_seed193

>  <candidate>  (568)
primary

$$$$
train::O=C(Cn1cnc2cc([N+](=O)[O-])ccc2c1=O)NC(=O)NCc1ccccc1__gen0001
     RDKit          3D

 43 45  0  0  0  0  0  0  0  0999 V2000
   -0.5628   -1.5090   -2.7093 O   0  0  0  0  0  0  0  0  0  0  0  0
   -1.3750   -1.0508   -1.9391 C   0  0  0  0  0  0  0  0  0  1  0  0
   -1.5717    0.2746   -1.7114 N   0  0  0  0  0  0  0  0  0  2  0  0
   -0.8957    1.3866   -2.2748 C   0  0  0  0  0  0  0  0  0  3  0  0
   -1.1773    2.5022   -1.8895 O   0  0  0  0  0  0  0  0  0  4  0  0
    0.0046    1.0907   -3.2338 N   0  0  0  0  0  0  0  0  0  5  0  0
    0.2041    0.1230   -3.4113 H   0  0  0  0  0  0  0  0  0  6  0  0
    0.8510    2.1067   -3.8184 C   0  0  0  0  0  0  0  0  0  7  0  0
    2.2245    2.0920   -3.1990 C   0  0  0  0  0  0  0  0  0  8  0  0
    2.3842    2.5519   -1.8982 C   0  0  0  0  0  0  0  0  0  9  0  0
    1.5250    2.9491   -1.3652 H   0  0  0  0  0  0  0  0  0 18  0  0
    3.6263    2.5104   -1.2976 C   0  0  0  0  0  0  0  0  0 10  0  0
    3.7445    2.8767   -0.2882 H   0  0  0  0  0  0  0  0  0 17  0  0
    4.7213    2.0077   -1.9831 C   0  0  0  0  0  0  0  0  0 11  0  0
    5.6878    1.9915   -1.5153 H   0  0  0  0  0  0  0  0  0 16  0  0
    4.5602    1.5574   -3.2845 C   0  0  0  0  0  0  0  0  0 12  0  0
    5.4072    1.1811   -3.8354 H   0  0  0  0  0  0  0  0  0 15  0  0
    3.3161    1.5925   -3.8915 C   0  0  0  0  0  0  0  0  0 13  0  0
    3.2022    1.2358   -4.9060 H   0  0  0  0  0  0  0  0  0 14  0  0
    0.9154    1.9167   -4.8968 H   0  0  0  0  0  0  0  0  0 19  0  0
    0.3672    3.0707   -3.6530 H   0  0  0  0  0  0  0  0  0 20  0  0
   -2.2729    0.5453   -1.0478 H   0  0  0  0  0  0  0  0  0 21  0  0
   -2.2814   -1.9573   -1.1042 C   0  0  0  0  0  0  0  0  0 22  0  0
   -1.8929   -1.9548    0.3024 N   0  0  0  0  0  0  0  0  0 23  0  0
   -1.0101   -2.8959    0.7559 C   0  0  0  0  0  0  0  0  0 24  0  0
   -0.6238   -3.5828    0.0297 H   0  0  0  0  0  0  0  0  0 40  0  0
   -0.6189   -3.0129    1.9732 N   0  0  0  0  0  0  0  0  0 25  0  0
   -1.1133   -2.1283    2.8872 C   0  0  0  0  0  0  0  0  0 26  0  0
   -0.7180   -2.2412    4.2251 C   0  0  0  0  0  0  0  0  0 27  0  0
   -0.0487   -3.0250    4.5232 H   0  0  0  0  0  0  0  0  0 39  0  0
   -1.2057   -1.3466    5.1545 C   0  0  0  0  0  0  0  0  0 28  0  0
   -0.8023   -1.4693    6.5379 N   0  0  0  0  0  0  0  0  0 36  0  0
   -0.0428   -2.3724    6.8136 O   0  0  0  0  0  0  0  0  0 37  0  0
   -1.2518   -0.6679    7.3249 O   0  0  0  0  0  0  0  0  0 38  0  0
   -2.0878   -0.3246    4.7947 C   0  0  0  0  0  0  0  0  0 29  0  0
   -2.4429    0.3581    5.5492 H   0  0  0  0  0  0  0  0  0 35  0  0
   -2.4838   -0.1978    3.4766 C   0  0  0  0  0  0  0  0  0 30  0  0
   -3.1590    0.5731    3.1454 H   0  0  0  0  0  0  0  0  0 34  0  0
   -2.0081   -1.1027    2.5198 C   0  0  0  0  0  0  0  0  0 31  0  0
   -2.4153   -0.9739    1.1277 C   0  0  0  0  0  0  0  0  0 32  0  0
   -3.1449   -0.1191    0.6724 O   0  0  0  0  0  0  0  0  0 33  0  0
   -2.2184   -2.9737   -1.4965 H   0  0  0  0  0  0  0  0  0 41  0  0
   -3.3162   -1.5879   -1.1633 H   0  0  0  0  0  0  0  0  0 42  0  0
  1  2  2  0
  2  3  1  0
  3  4  1  0
  4  5  2  0
  4  6  1  0
  6  7  1  0
  6  8  1  0
  8  9  1  0
  9 10  4  0
 10 11  1  0
 10 12  4  0
 12 13  1  0
 12 14  4  0
 14 15  1  0
 14 16  4  0
 16 17  1  0
 16 18  4  0
 18 19  1  0
  8 20  1  0
  8 21  1  0
  3 22  1  0
  2 23  1  0
 23 24  1  0
 24 25  4  0
 25 26  1  0
 25 27  4  0
 27 28  4  0
 28 29  4  0
 29 30  1  0
 29 31  4  0
 31 32  1  0
 32 33  2  0
 32 34  1  0
 31 35  4  0
 35 36  1  0
 35 37  4  0
 37 38  1  0
 37 39  4  0
 39 40  4  0
 40 41  2  0
 23 42  1  0
 23 43  1  0
 18  9  4  0
 40 24  4  0
 39 28  4  0
M  CHG  2  32   1  34  -1
M  END
>  <sample_id>  (569)
train::O=C(Cn1cnc2cc([N+](=O)[O-])ccc2c1=O)NC(=O)NCc1ccccc1__gen0001

>  <partition>  (569)
BAT_EXTERNAL_CONFIRM

>  <method>  (569)
BA_seed193

>  <candidate>  (569)
primary

$$$$
train::O=C(Cn1cnc2cc([N+](=O)[O-])ccc2c1=O)NC(=O)NCc1ccccc1__gen0002
     RDKit          3D

 43 45  0  0  0  0  0  0  0  0999 V2000
    0.6825   -5.1024   -1.7044 O   0  0  0  0  0  0  0  0  0  0  0  0
    0.7177   -3.9410   -1.3830 C   0  0  0  0  0  0  0  0  0  1  0  0
    1.7008   -3.1342   -1.8767 N   0  0  0  0  0  0  0  0  0  2  0  0
    2.0617   -1.7858   -1.7905 C   0  0  0  0  0  0  0  0  0  3  0  0
    2.6427   -1.2467   -2.6909 O   0  0  0  0  0  0  0  0  0  4  0  0
    1.7662   -1.1739   -0.6140 N   0  0  0  0  0  0  0  0  0  5  0  0
    1.6037   -1.7386    0.2071 H   0  0  0  0  0  0  0  0  0  6  0  0
    2.1723    0.1999   -0.4096 C   0  0  0  0  0  0  0  0  0  7  0  0
    1.8091    0.7287    0.9486 C   0  0  0  0  0  0  0  0  0  8  0  0
    2.0658   -0.0017    2.1006 C   0  0  0  0  0  0  0  0  0  9  0  0
    2.5327   -0.9689    2.0349 H   0  0  0  0  0  0  0  0  0 18  0  0
    1.7337    0.5118    3.3387 C   0  0  0  0  0  0  0  0  0 10  0  0
    1.9426   -0.0599    4.2203 H   0  0  0  0  0  0  0  0  0 17  0  0
    1.1718    1.7738    3.4407 C   0  0  0  0  0  0  0  0  0 11  0  0
    0.9157    2.1754    4.4115 H   0  0  0  0  0  0  0  0  0 16  0  0
    0.9212    2.5141    2.3008 C   0  0  0  0  0  0  0  0  0 12  0  0
    0.4996    3.4998    2.3778 H   0  0  0  0  0  0  0  0  0 15  0  0
    1.2320    1.9895    1.0604 C   0  0  0  0  0  0  0  0  0 13  0  0
    1.0465    2.5724    0.1658 H   0  0  0  0  0  0  0  0  0 14  0  0
    3.2497    0.2897   -0.5897 H   0  0  0  0  0  0  0  0  0 19  0  0
    1.6946    0.8070   -1.1908 H   0  0  0  0  0  0  0  0  0 20  0  0
    2.2043   -3.6044   -2.6601 H   0  0  0  0  0  0  0  0  0 21  0  0
   -0.3409   -3.3946   -0.4157 C   0  0  0  0  0  0  0  0  0 22  0  0
   -0.8289   -2.0646   -0.7487 N   0  0  0  0  0  0  0  0  0 23  0  0
   -1.2034   -1.7306   -2.0011 C   0  0  0  0  0  0  0  0  0 24  0  0
   -1.0771   -2.4896   -2.7513 H   0  0  0  0  0  0  0  0  0 40  0  0
   -1.6560   -0.5882   -2.3483 N   0  0  0  0  0  0  0  0  0 25  0  0
   -1.8384    0.3575   -1.3720 C   0  0  0  0  0  0  0  0  0 26  0  0
   -2.3677    1.6010   -1.7272 C   0  0  0  0  0  0  0  0  0 27  0  0
   -2.6186    1.8100   -2.7486 H   0  0  0  0  0  0  0  0  0 39  0  0
   -2.5840    2.5355   -0.7482 C   0  0  0  0  0  0  0  0  0 28  0  0
   -3.1174    3.8268   -1.1126 N   0  0  0  0  0  0  0  0  0 36  0  0
   -3.2892    4.6384   -0.2255 O   0  0  0  0  0  0  0  0  0 37  0  0
   -3.4023    4.0034   -2.2744 O   0  0  0  0  0  0  0  0  0 38  0  0
   -2.2941    2.2944    0.5944 C   0  0  0  0  0  0  0  0  0 29  0  0
   -2.4608    3.0590    1.3396 H   0  0  0  0  0  0  0  0  0 35  0  0
   -1.7431    1.0808    0.9558 C   0  0  0  0  0  0  0  0  0 30  0  0
   -1.4736    0.8480    1.9762 H   0  0  0  0  0  0  0  0  0 34  0  0
   -1.5255    0.0989   -0.0220 C   0  0  0  0  0  0  0  0  0 31  0  0
   -0.9413   -1.1880    0.3363 C   0  0  0  0  0  0  0  0  0 32  0  0
   -0.5373   -1.5283    1.4336 O   0  0  0  0  0  0  0  0  0 33  0  0
    0.0874   -3.3575    0.5914 H   0  0  0  0  0  0  0  0  0 41  0  0
   -1.1548   -4.1169   -0.4295 H   0  0  0  0  0  0  0  0  0 42  0  0
  1  2  2  0
  2  3  1  0
  3  4  1  0
  4  5  2  0
  4  6  1  0
  6  7  1  0
  6  8  1  0
  8  9  1  0
  9 10  4  0
 10 11  1  0
 10 12  4  0
 12 13  1  0
 12 14  4  0
 14 15  1  0
 14 16  4  0
 16 17  1  0
 16 18  4  0
 18 19  1  0
  8 20  1  0
  8 21  1  0
  3 22  1  0
  2 23  1  0
 23 24  1  0
 24 25  4  0
 25 26  1  0
 25 27  4  0
 27 28  4  0
 28 29  4  0
 29 30  1  0
 29 31  4  0
 31 32  1  0
 32 33  2  0
 32 34  1  0
 31 35  4  0
 35 36  1  0
 35 37  4  0
 37 38  1  0
 37 39  4  0
 39 40  4  0
 40 41  2  0
 23 42  1  0
 23 43  1  0
 18  9  4  0
 40 24  4  0
 39 28  4  0
M  CHG  2  32   1  34  -1
M  END
>  <sample_id>  (570)
train::O=C(Cn1cnc2cc([N+](=O)[O-])ccc2c1=O)NC(=O)NCc1ccccc1__gen0002

>  <partition>  (570)
BAT_EXTERNAL_CONFIRM

>  <method>  (570)
BA_seed193

>  <candidate>  (570)
primary

$$$$
train::CCOc1ccc(Cl)cc1S(=O)(=O)N1CCC(C(=O)NCC2CCCO2)CC1__gen0000
     RDKit          3D

 55 57  0  0  0  0  0  0  0  0999 V2000
    1.2616    1.8372   -4.3750 C   0  0  0  0  0  0  0  0  0  0  0  0
    2.1722    1.3560   -4.0277 H   0  0  0  0  0  0  0  0  0  1  0  0
    1.0035    1.4614   -5.3577 H   0  0  0  0  0  0  0  0  0  2  0  0
    1.4505    2.9078   -4.4233 H   0  0  0  0  0  0  0  0  0  3  0  0
    0.1015    1.5806   -3.4129 C   0  0  0  0  0  0  0  0  0  4  0  0
   -0.8072    2.0524   -3.8004 H   0  0  0  0  0  0  0  0  0  5  0  0
   -0.0911    0.5056   -3.2880 H   0  0  0  0  0  0  0  0  0  6  0  0
    0.2609    2.2098   -2.1594 O   0  0  0  0  0  0  0  0  0  7  0  0
    1.0413    1.6209   -1.2104 C   0  0  0  0  0  0  0  0  0  8  0  0
    1.8310    0.4924   -1.3968 C   0  0  0  0  0  0  0  0  0  9  0  0
    1.8930   -0.0026   -2.3534 H   0  0  0  0  0  0  0  0  0 54  0  0
    2.5762   -0.0314   -0.3530 C   0  0  0  0  0  0  0  0  0 10  0  0
    3.1884   -0.9100   -0.5115 H   0  0  0  0  0  0  0  0  0 53  0  0
    2.5347    0.5545    0.9019 C   0  0  0  0  0  0  0  0  0 11  0  0
    3.4271   -0.1208    2.2079 Cl  0  0  0  0  0  0  0  0  0 52  0  0
    1.7415    1.6642    1.1107 C   0  0  0  0  0  0  0  0  0 12  0  0
    1.6743    2.1573    2.0646 H   0  0  0  0  0  0  0  0  0 51  0  0
    0.9866    2.1761    0.0720 C   0  0  0  0  0  0  0  0  0 13  0  0
   -0.0884    3.5876    0.4755 S   0  0  1  0  0  6  0  0  0 14  0  0
    0.3683    4.0528    1.7497 O   0  0  0  0  0  0  0  0  0 15  0  0
   -0.1498    4.5122   -0.6144 O   0  0  0  0  0  0  0  0  0 16  0  0
   -1.6192    2.9919    0.7358 N   0  0  0  0  0  0  0  0  0 17  0  0
   -1.7743    2.0762    1.8290 C   0  0  0  0  0  0  0  0  0 18  0  0
   -1.0384    2.3700    2.5696 H   0  0  0  0  0  0  0  0  0 49  0  0
   -2.7782    2.2046    2.2478 H   0  0  0  0  0  0  0  0  0 50  0  0
   -1.5772    0.6294    1.3746 C   0  0  0  0  0  0  0  0  0 19  0  0
   -0.5423    0.4810    1.0740 H   0  0  0  0  0  0  0  0  0 20  0  0
   -1.7852   -0.0336    2.2197 H   0  0  0  0  0  0  0  0  0 21  0  0
   -2.4790    0.2539    0.1753 C   0  0  2  0  0  0  0  0  0 22  0  0
   -1.8548   -1.0007   -0.4302 C   0  0  0  0  0  0  0  0  0 23  0  0
   -1.2916   -0.9919   -1.5057 O   0  0  0  0  0  0  0  0  0 24  0  0
   -1.8888   -2.0992    0.3573 N   0  0  0  0  0  0  0  0  0 25  0  0
   -2.2467   -2.0219    1.2986 H   0  0  0  0  0  0  0  0  0 26  0  0
   -0.9451   -3.1789    0.1615 C   0  0  0  0  0  0  0  0  0 27  0  0
   -0.7431   -3.2602   -0.9140 H   0  0  0  0  0  0  0  0  0 28  0  0
   -1.3685   -4.1253    0.5230 H   0  0  0  0  0  0  0  0  0 29  0  0
    0.3477   -2.8497    0.9081 C   0  0  2  0  0  0  0  0  0 30  0  0
    0.6680   -1.8599    0.5560 H   0  0  0  0  0  0  0  0  0 41  0  0
    1.4913   -3.8572    0.7464 C   0  0  0  0  0  0  0  0  0 31  0  0
    1.1220   -4.7881    0.3086 H   0  0  0  0  0  0  0  0  0 32  0  0
    2.2741   -3.4491    0.1065 H   0  0  0  0  0  0  0  0  0 40  0  0
    2.0128   -4.0639    2.1800 C   0  0  0  0  0  0  0  0  0 33  0  0
    3.0870   -3.9194    2.2544 H   0  0  0  0  0  0  0  0  0 34  0  0
    1.7763   -5.0646    2.5542 H   0  0  0  0  0  0  0  0  0 39  0  0
    1.2562   -3.0223    2.9871 C   0  0  0  0  0  0  0  0  0 35  0  0
    1.0032   -3.3386    4.0091 H   0  0  0  0  0  0  0  0  0 36  0  0
    1.7921   -2.0685    3.0268 H   0  0  0  0  0  0  0  0  0 37  0  0
    0.0451   -2.8201    2.3008 O   0  0  0  0  0  0  0  0  0 38  0  0
   -3.5058    0.0399    0.4848 H   0  0  0  0  0  0  0  0  0 48  0  0
   -2.5082    1.3591   -0.8949 C   0  0  0  0  0  0  0  0  0 42  0  0
   -1.6186    1.2414   -1.5171 H   0  0  0  0  0  0  0  0  0 43  0  0
   -3.3833    1.1989   -1.5227 H   0  0  0  0  0  0  0  0  0 47  0  0
   -2.5239    2.7850   -0.3498 C   0  0  0  0  0  0  0  0  0 44  0  0
   -2.2427    3.4867   -1.1441 H   0  0  0  0  0  0  0  0  0 45  0  0
   -3.5366    3.0314   -0.0091 H   0  0  0  0  0  0  0  0  0 46  0  0
  1  2  1  0
  1  3  1  0
  1  4  1  0
  1  5  1  0
  5  6  1  0
  5  7  1  0
  5  8  1  0
  8  9  1  0
  9 10  4  0
 10 11  1  0
 10 12  4  0
 12 13  1  0
 12 14  4  0
 14 15  1  0
 14 16  4  0
 16 17  1  0
 16 18  4  0
 19 18  1  6
 19 20  2  0
 19 21  2  0
 19 22  1  0
 22 23  1  0
 23 24  1  0
 23 25  1  0
 23 26  1  0
 26 27  1  0
 26 28  1  0
 26 29  1  0
 29 30  1  0
 30 31  2  0
 30 32  1  0
 32 33  1  0
 32 34  1  0
 34 35  1  0
 34 36  1  0
 34 37  1  0
 37 38  1  6
 37 39  1  0
 39 40  1  0
 39 41  1  0
 39 42  1  0
 42 43  1  0
 42 44  1  0
 42 45  1  0
 45 46  1  0
 45 47  1  0
 45 48  1  0
 29 49  1  1
 29 50  1  0
 50 51  1  0
 50 52  1  0
 50 53  1  0
 53 54  1  0
 53 55  1  0
 18  9  4  0
 53 22  1  0
 48 37  1  0
M  END
>  <sample_id>  (571)
train::CCOc1ccc(Cl)cc1S(=O)(=O)N1CCC(C(=O)NCC2CCCO2)CC1__gen0000

>  <partition>  (571)
BAT_EXTERNAL_CONFIRM

>  <method>  (571)
BA_seed193

>  <candidate>  (571)
primary

$$$$
train::CCOc1ccc(Cl)cc1S(=O)(=O)N1CCC(C(=O)NCC2CCCO2)CC1__gen0001
     RDKit          3D

 55 57  0  0  0  0  0  0  0  0999 V2000
   -5.9617   -0.9026    0.5128 C   0  0  0  0  0  0  0  0  0  0  0  0
   -6.2544   -1.4214    1.4338 H   0  0  0  0  0  0  0  0  0  1  0  0
   -5.7550   -1.6635   -0.2400 H   0  0  0  0  0  0  0  0  0  2  0  0
   -6.7896   -0.2907    0.1565 H   0  0  0  0  0  0  0  0  0  3  0  0
   -4.7345   -0.0469    0.7273 C   0  0  0  0  0  0  0  0  0  4  0  0
   -4.9060    0.7070    1.5064 H   0  0  0  0  0  0  0  0  0  5  0  0
   -4.4737    0.4726   -0.2011 H   0  0  0  0  0  0  0  0  0  6  0  0
   -3.5822   -0.8034    1.0159 O   0  0  0  0  0  0  0  0  0  7  0  0
   -3.3976   -1.3342    2.2438 C   0  0  0  0  0  0  0  0  0  8  0  0
   -4.2065   -1.1293    3.3551 C   0  0  0  0  0  0  0  0  0  9  0  0
   -5.0796   -0.4946    3.2949 H   0  0  0  0  0  0  0  0  0 54  0  0
   -3.8794   -1.6966    4.5859 C   0  0  0  0  0  0  0  0  0 10  0  0
   -4.5132   -1.5206    5.4346 H   0  0  0  0  0  0  0  0  0 53  0  0
   -2.7673   -2.4901    4.7003 C   0  0  0  0  0  0  0  0  0 11  0  0
   -2.3612   -3.2001    6.2185 Cl  0  0  0  0  0  0  0  0  0 52  0  0
   -1.9550   -2.7187    3.6037 C   0  0  0  0  0  0  0  0  0 12  0  0
   -1.0736   -3.3523    3.6538 H   0  0  0  0  0  0  0  0  0 51  0  0
   -2.2812   -2.1495    2.3929 C   0  0  0  0  0  0  0  0  0 13  0  0
   -1.2683   -2.5037    0.9516 S   0  0  2  0  0  6  0  0  0 14  0  0
   -2.0768   -3.1791   -0.0268 O   0  0  0  0  0  0  0  0  0 15  0  0
   -0.0907   -3.1698    1.4304 O   0  0  0  0  0  0  0  0  0 16  0  0
   -0.9361   -0.9618    0.3976 N   0  0  0  0  0  0  0  0  0 17  0  0
   -0.9899   -0.7688   -1.0296 C   0  0  0  0  0  0  0  0  0 18  0  0
   -1.8594   -1.3400   -1.3919 H   0  0  0  0  0  0  0  0  0 49  0  0
   -1.1312    0.2922   -1.2011 H   0  0  0  0  0  0  0  0  0 50  0  0
    0.2808   -1.2910   -1.6781 C   0  0  0  0  0  0  0  0  0 19  0  0
    0.3700   -2.3538   -1.4795 H   0  0  0  0  0  0  0  0  0 20  0  0
    0.2259   -1.1439   -2.7651 H   0  0  0  0  0  0  0  0  0 21  0  0
    1.5252   -0.5909   -1.1072 C   0  0  1  0  0  0  0  0  0 22  0  0
    1.5174    0.8754   -1.5561 C   0  0  0  0  0  0  0  0  0 23  0  0
    0.8510    1.7500   -1.0640 O   0  0  0  0  0  0  0  0  0 24  0  0
    2.2936    1.1107   -2.6425 N   0  0  0  0  0  0  0  0  0 25  0  0
    2.9092    0.3735   -2.9688 H   0  0  0  0  0  0  0  0  0 26  0  0
    2.4348    2.3996   -3.2594 C   0  0  0  0  0  0  0  0  0 27  0  0
    2.4797    2.2842   -4.3447 H   0  0  0  0  0  0  0  0  0 28  0  0
    1.5366    2.9660   -2.9969 H   0  0  0  0  0  0  0  0  0 29  0  0
    3.6572    3.1909   -2.7543 C   0  0  2  0  0  0  0  0  0 30  0  0
    3.7042    4.1361   -3.2859 H   0  0  0  0  0  0  0  0  0 41  0  0
    4.9901    2.4163   -2.9040 C   0  0  0  0  0  0  0  0  0 31  0  0
    4.8122    1.3590   -3.0988 H   0  0  0  0  0  0  0  0  0 32  0  0
    5.5957    2.7996   -3.7139 H   0  0  0  0  0  0  0  0  0 40  0  0
    5.6626    2.6037   -1.5547 C   0  0  0  0  0  0  0  0  0 33  0  0
    6.2960    1.7685   -1.2629 H   0  0  0  0  0  0  0  0  0 34  0  0
    6.2311    3.5225   -1.5159 H   0  0  0  0  0  0  0  0  0 39  0  0
    4.4450    2.7223   -0.6241 C   0  0  0  0  0  0  0  0  0 35  0  0
    4.0468    1.7294   -0.3825 H   0  0  0  0  0  0  0  0  0 36  0  0
    4.6466    3.2647    0.2977 H   0  0  0  0  0  0  0  0  0 37  0  0
    3.4966    3.4720   -1.3542 O   0  0  0  0  0  0  0  0  0 38  0  0
    2.4332   -1.0575   -1.4833 H   0  0  0  0  0  0  0  0  0 48  0  0
    1.5113   -0.7119    0.4138 C   0  0  0  0  0  0  0  0  0 42  0  0
    1.7116   -1.7435    0.6656 H   0  0  0  0  0  0  0  0  0 43  0  0
    2.3134   -0.0836    0.8300 H   0  0  0  0  0  0  0  0  0 47  0  0
    0.1777   -0.2981    1.0433 C   0  0  0  0  0  0  0  0  0 44  0  0
    0.1487   -0.5808    2.0861 H   0  0  0  0  0  0  0  0  0 45  0  0
    0.0197    0.7767    0.9348 H   0  0  0  0  0  0  0  0  0 46  0  0
  1  2  1  0
  1  3  1  0
  1  4  1  0
  1  5  1  0
  5  6  1  0
  5  7  1  0
  5  8  1  0
  8  9  1  0
  9 10  4  0
 10 11  1  0
 10 12  4  0
 12 13  1  0
 12 14  4  0
 14 15  1  0
 14 16  4  0
 16 17  1  0
 16 18  4  0
 19 18  1  6
 19 20  2  0
 19 21  2  0
 19 22  1  0
 22 23  1  0
 23 24  1  0
 23 25  1  0
 23 26  1  0
 26 27  1  0
 26 28  1  0
 26 29  1  0
 29 30  1  0
 30 31  2  0
 30 32  1  0
 32 33  1  0
 32 34  1  0
 34 35  1  0
 34 36  1  0
 34 37  1  0
 37 38  1  6
 37 39  1  0
 39 40  1  0
 39 41  1  0
 39 42  1  0
 42 43  1  0
 42 44  1  0
 42 45  1  0
 45 46  1  0
 45 47  1  0
 45 48  1  0
 29 49  1  1
 29 50  1  0
 50 51  1  0
 50 52  1  0
 50 53  1  0
 53 54  1  0
 53 55  1  0
 18  9  4  0
 53 22  1  0
 48 37  1  0
M  END
>  <sample_id>  (572)
train::CCOc1ccc(Cl)cc1S(=O)(=O)N1CCC(C(=O)NCC2CCCO2)CC1__gen0001

>  <partition>  (572)
BAT_EXTERNAL_CONFIRM

>  <method>  (572)
BA_seed193

>  <candidate>  (572)
primary

$$$$
train::CCOc1ccc(Cl)cc1S(=O)(=O)N1CCC(C(=O)NCC2CCCO2)CC1__gen0002
     RDKit          3D

 55 57  0  0  0  0  0  0  0  0999 V2000
    1.8895   -3.5804    3.1552 C   0  0  0  0  0  0  0  0  0  0  0  0
    1.4977   -4.3665    3.7885 H   0  0  0  0  0  0  0  0  0  1  0  0
    2.3592   -4.0140    2.2751 H   0  0  0  0  0  0  0  0  0  2  0  0
    2.6557   -3.0306    3.7091 H   0  0  0  0  0  0  0  0  0  3  0  0
    0.7654   -2.6111    2.7794 C   0  0  0  0  0  0  0  0  0  4  0  0
    0.3255   -2.1991    3.6962 H   0  0  0  0  0  0  0  0  0  5  0  0
   -0.0078   -3.1099    2.2040 H   0  0  0  0  0  0  0  0  0  6  0  0
    1.2464   -1.4684    2.1151 O   0  0  0  0  0  0  0  0  0  7  0  0
    1.7349   -1.5564    0.8545 C   0  0  0  0  0  0  0  0  0  8  0  0
    1.5984   -2.6595    0.0117 C   0  0  0  0  0  0  0  0  0  9  0  0
    1.0849   -3.5510    0.3491 H   0  0  0  0  0  0  0  0  0 54  0  0
    2.0840   -2.6339   -1.2842 C   0  0  0  0  0  0  0  0  0 10  0  0
    1.9607   -3.4932   -1.9195 H   0  0  0  0  0  0  0  0  0 53  0  0
    2.7346   -1.5078   -1.7629 C   0  0  0  0  0  0  0  0  0 11  0  0
    3.3245   -1.4676   -3.3755 Cl  0  0  0  0  0  0  0  0  0 52  0  0
    2.8929   -0.4112   -0.9329 C   0  0  0  0  0  0  0  0  0 12  0  0
    3.4223    0.4752   -1.2530 H   0  0  0  0  0  0  0  0  0 51  0  0
    2.3928   -0.4297    0.3508 C   0  0  0  0  0  0  0  0  0 13  0  0
    2.6742    1.0216    1.3599 S   0  0  2  0  0  6  0  0  0 14  0  0
    3.6521    1.8286    0.6822 O   0  0  0  0  0  0  0  0  0 15  0  0
    2.9451    0.6569    2.7079 O   0  0  0  0  0  0  0  0  0 16  0  0
    1.2573    1.8969    1.3181 N   0  0  0  0  0  0  0  0  0 17  0  0
    0.1434    1.3501    2.0649 C   0  0  0  0  0  0  0  0  0 18  0  0
   -0.3111    0.5108    1.5358 H   0  0  0  0  0  0  0  0  0 49  0  0
    0.5532    1.0021    3.0209 H   0  0  0  0  0  0  0  0  0 50  0  0
   -0.8995    2.4374    2.2889 C   0  0  0  0  0  0  0  0  0 19  0  0
   -0.4843    3.2331    2.8990 H   0  0  0  0  0  0  0  0  0 20  0  0
   -1.7589    1.9918    2.8047 H   0  0  0  0  0  0  0  0  0 21  0  0
   -1.3651    3.0170    0.9432 C   0  0  2  0  0  0  0  0  0 22  0  0
   -2.1460    1.9516    0.1748 C   0  0  0  0  0  0  0  0  0 23  0  0
   -2.6193    0.9612    0.6955 O   0  0  0  0  0  0  0  0  0 24  0  0
   -2.3852    2.2327   -1.1315 N   0  0  0  0  0  0  0  0  0 25  0  0
   -1.9527    3.0415   -1.5681 H   0  0  0  0  0  0  0  0  0 26  0  0
   -2.9329    1.2320   -2.0222 C   0  0  0  0  0  0  0  0  0 27  0  0
   -3.5052    0.5506   -1.3910 H   0  0  0  0  0  0  0  0  0 28  0  0
   -3.5891    1.7070   -2.7585 H   0  0  0  0  0  0  0  0  0 29  0  0
   -1.8027    0.4808   -2.7414 C   0  0  2  0  0  0  0  0  0 30  0  0
   -1.2864    1.1518   -3.4339 H   0  0  0  0  0  0  0  0  0 41  0  0
   -2.2967   -0.8104   -3.4202 C   0  0  0  0  0  0  0  0  0 31  0  0
   -1.6179   -1.0887   -4.2175 H   0  0  0  0  0  0  0  0  0 32  0  0
   -3.2941   -0.6810   -3.8437 H   0  0  0  0  0  0  0  0  0 40  0  0
   -2.2665   -1.8202   -2.2676 C   0  0  0  0  0  0  0  0  0 33  0  0
   -1.8850   -2.7928   -2.6068 H   0  0  0  0  0  0  0  0  0 34  0  0
   -3.2589   -1.9861   -1.8494 H   0  0  0  0  0  0  0  0  0 39  0  0
   -1.3325   -1.1710   -1.2293 C   0  0  0  0  0  0  0  0  0 35  0  0
   -0.4609   -1.7975   -0.9935 H   0  0  0  0  0  0  0  0  0 36  0  0
   -1.8554   -0.9527   -0.2880 H   0  0  0  0  0  0  0  0  0 37  0  0
   -0.8417    0.0214   -1.8030 O   0  0  0  0  0  0  0  0  0 38  0  0
   -2.0554    3.8544    1.1100 H   0  0  0  0  0  0  0  0  0 48  0  0
   -0.1275    3.5329    0.1939 C   0  0  0  0  0  0  0  0  0 42  0  0
   -0.3712    3.9693   -0.7781 H   0  0  0  0  0  0  0  0  0 43  0  0
    0.3278    4.3186    0.8072 H   0  0  0  0  0  0  0  0  0 47  0  0
    0.8891    2.4025    0.0174 C   0  0  0  0  0  0  0  0  0 44  0  0
    0.4787    1.5950   -0.6100 H   0  0  0  0  0  0  0  0  0 45  0  0
    1.8194    2.7662   -0.4315 H   0  0  0  0  0  0  0  0  0 46  0  0
  1  2  1  0
  1  3  1  0
  1  4  1  0
  1  5  1  0
  5  6  1  0
  5  7  1  0
  5  8  1  0
  8  9  1  0
  9 10  4  0
 10 11  1  0
 10 12  4  0
 12 13  1  0
 12 14  4  0
 14 15  1  0
 14 16  4  0
 16 17  1  0
 16 18  4  0
 19 18  1  1
 19 20  2  0
 19 21  2  0
 19 22  1  0
 22 23  1  0
 23 24  1  0
 23 25  1  0
 23 26  1  0
 26 27  1  0
 26 28  1  0
 26 29  1  0
 29 30  1  0
 30 31  2  0
 30 32  1  0
 32 33  1  0
 32 34  1  0
 34 35  1  0
 34 36  1  0
 34 37  1  0
 37 38  1  6
 37 39  1  0
 39 40  1  0
 39 41  1  0
 39 42  1  0
 42 43  1  0
 42 44  1  0
 42 45  1  0
 45 46  1  0
 45 47  1  0
 45 48  1  0
 29 49  1  1
 29 50  1  0
 50 51  1  0
 50 52  1  0
 50 53  1  0
 53 54  1  0
 53 55  1  0
 18  9  4  0
 53 22  1  0
 48 37  1  0
M  END
>  <sample_id>  (573)
train::CCOc1ccc(Cl)cc1S(=O)(=O)N1CCC(C(=O)NCC2CCCO2)CC1__gen0002

>  <partition>  (573)
BAT_EXTERNAL_CONFIRM

>  <method>  (573)
BA_seed193

>  <candidate>  (573)
primary

$$$$
train::CCCC(C)C(=O)Nc1ccc(NC(C)=O)cc1__gen0000
     RDKit          3D

 38 38  0  0  0  0  0  0  0  0999 V2000
    3.4307   -4.6050   -0.2001 C   0  0  0  0  0  0  0  0  0  0  0  0
    3.3436   -3.9505   -1.5802 C   0  0  0  0  0  0  0  0  0  1  0  0
    2.1559   -3.0082   -1.7207 C   0  0  0  0  0  0  0  0  0  2  0  0
    1.2394   -3.5379   -1.4538 H   0  0  0  0  0  0  0  0  0  3  0  0
    2.2466   -1.7333   -0.8675 C   0  0  2  0  0  0  0  0  0  4  0  0
    0.9157   -0.9969   -0.9301 C   0  0  0  0  0  0  0  0  0  5  0  0
    0.1539   -1.0729   -1.8627 O   0  0  0  0  0  0  0  0  0  6  0  0
    0.6989   -0.2101    0.1805 N   0  0  0  0  0  0  0  0  0  7  0  0
   -0.3543    0.6656    0.4503 C   0  0  0  0  0  0  0  0  0  8  0  0
   -0.3210    1.3585    1.6510 C   0  0  0  0  0  0  0  0  0  9  0  0
    0.5072    1.2286    2.3342 H   0  0  0  0  0  0  0  0  0 25  0  0
   -1.3368    2.2299    1.9871 C   0  0  0  0  0  0  0  0  0 10  0  0
   -1.2928    2.7694    2.9234 H   0  0  0  0  0  0  0  0  0 24  0  0
   -2.4195    2.4231    1.1205 C   0  0  0  0  0  0  0  0  0 11  0  0
   -3.4235    3.3146    1.5267 N   0  0  0  0  0  0  0  0  0 16  0  0
   -4.5525    3.6807    0.8705 C   0  0  0  0  0  0  0  0  0 17  0  0
   -4.8947    3.2684   -0.2136 O   0  0  0  0  0  0  0  0  0 18  0  0
   -5.3721    4.6842    1.6652 C   0  0  0  0  0  0  0  0  0 19  0  0
   -6.2612    4.9454    1.1025 H   0  0  0  0  0  0  0  0  0 20  0  0
   -4.7897    5.5940    1.8428 H   0  0  0  0  0  0  0  0  0 21  0  0
   -5.6633    4.2516    2.6226 H   0  0  0  0  0  0  0  0  0 22  0  0
   -3.2603    3.7394    2.4330 H   0  0  0  0  0  0  0  0  0 23  0  0
   -2.4577    1.7143   -0.0731 C   0  0  0  0  0  0  0  0  0 12  0  0
   -3.2836    1.8650   -0.7407 H   0  0  0  0  0  0  0  0  0 15  0  0
   -1.4285    0.8558   -0.4096 C   0  0  0  0  0  0  0  0  0 13  0  0
   -1.4782    0.3018   -1.3370 H   0  0  0  0  0  0  0  0  0 14  0  0
    1.4255   -0.2203    0.8855 H   0  0  0  0  0  0  0  0  0 26  0  0
    3.3291   -0.7691   -1.3782 C   0  0  0  0  0  0  0  0  0 27  0  0
    4.3051   -1.2419   -1.3471 H   0  0  0  0  0  0  0  0  0 28  0  0
    3.0974   -0.4881   -2.4040 H   0  0  0  0  0  0  0  0  0 29  0  0
    3.3498    0.1317   -0.7742 H   0  0  0  0  0  0  0  0  0 30  0  0
    2.4592   -2.0144    0.1717 H   0  0  0  0  0  0  0  0  0 31  0  0
    2.0452   -2.6947   -2.7671 H   0  0  0  0  0  0  0  0  0 32  0  0
    4.2774   -3.4241   -1.7978 H   0  0  0  0  0  0  0  0  0 33  0  0
    3.2424   -4.7414   -2.3302 H   0  0  0  0  0  0  0  0  0 34  0  0
    3.6369   -3.8649    0.5674 H   0  0  0  0  0  0  0  0  0 35  0  0
    2.4965   -5.1013    0.0379 H   0  0  0  0  0  0  0  0  0 36  0  0
    4.2334   -5.3468   -0.1852 H   0  0  0  0  0  0  0  0  0 37  0  0
  1  2  1  0
  2  3  1  0
  3  4  1  0
  3  5  1  0
  5  6  1  0
  6  7  2  0
  6  8  1  0
  8  9  1  0
  9 10  4  0
 10 11  1  0
 10 12  4  0
 12 13  1  0
 12 14  4  0
 14 15  1  0
 15 16  1  0
 16 17  2  0
 16 18  1  0
 18 19  1  0
 18 20  1  0
 18 21  1  0
 15 22  1  0
 14 23  4  0
 23 24  1  0
 23 25  4  0
 25 26  1  0
  8 27  1  0
  5 28  1  0
 28 29  1  0
 28 30  1  0
 28 31  1  0
  5 32  1  1
  3 33  1  0
  2 34  1  0
  2 35  1  0
  1 36  1  0
  1 37  1  0
  1 38  1  0
 25  9  4  0
M  END
>  <sample_id>  (574)
train::CCCC(C)C(=O)Nc1ccc(NC(C)=O)cc1__gen0000

>  <partition>  (574)
BAT_EXTERNAL_CONFIRM

>  <method>  (574)
BA_seed193

>  <candidate>  (574)
primary

$$$$
train::CCCC(C)C(=O)Nc1ccc(NC(C)=O)cc1__gen0001
     RDKit          3D

 38 38  0  0  0  0  0  0  0  0999 V2000
    1.0748    1.6005   -3.5087 C   0  0  0  0  0  0  0  0  0  0  0  0
    2.2728    0.8898   -4.0999 C   0  0  0  0  0  0  0  0  0  1  0  0
    3.1784    0.2454   -3.0230 C   0  0  0  0  0  0  0  0  0  2  0  0
    4.0434   -0.2096   -3.5221 H   0  0  0  0  0  0  0  0  0  3  0  0
    2.4635   -0.8296   -2.1824 C   0  0  2  0  0  0  0  0  0  4  0  0
    1.7185   -0.1881   -1.0195 C   0  0  0  0  0  0  0  0  0  5  0  0
    2.1661    0.7663   -0.4042 O   0  0  0  0  0  0  0  0  0  6  0  0
    0.5622   -0.8144   -0.7010 N   0  0  0  0  0  0  0  0  0  7  0  0
   -0.3390   -0.5631    0.3434 C   0  0  0  0  0  0  0  0  0  8  0  0
   -0.1965    0.4942    1.2371 C   0  0  0  0  0  0  0  0  0  9  0  0
    0.6572    1.1436    1.1447 H   0  0  0  0  0  0  0  0  0 25  0  0
   -1.1270    0.6936    2.2352 C   0  0  0  0  0  0  0  0  0 10  0  0
   -0.9976    1.5164    2.9217 H   0  0  0  0  0  0  0  0  0 24  0  0
   -2.2294   -0.1534    2.3539 C   0  0  0  0  0  0  0  0  0 11  0  0
   -3.1972    0.0114    3.3332 N   0  0  0  0  0  0  0  0  0 16  0  0
   -3.2887    0.9475    4.3249 C   0  0  0  0  0  0  0  0  0 17  0  0
   -2.4969    1.8461    4.5027 O   0  0  0  0  0  0  0  0  0 18  0  0
   -4.5279    0.7634    5.1915 C   0  0  0  0  0  0  0  0  0 19  0  0
   -4.4905   -0.2125    5.6714 H   0  0  0  0  0  0  0  0  0 20  0  0
   -5.4247    0.8197    4.5772 H   0  0  0  0  0  0  0  0  0 21  0  0
   -4.5493    1.5351    5.9559 H   0  0  0  0  0  0  0  0  0 22  0  0
   -3.9498   -0.6691    3.3126 H   0  0  0  0  0  0  0  0  0 23  0  0
   -2.3802   -1.1987    1.4495 C   0  0  0  0  0  0  0  0  0 12  0  0
   -3.2233   -1.8640    1.5331 H   0  0  0  0  0  0  0  0  0 15  0  0
   -1.4417   -1.4105    0.4634 C   0  0  0  0  0  0  0  0  0 13  0  0
   -1.5746   -2.2290   -0.2298 H   0  0  0  0  0  0  0  0  0 14  0  0
    0.3180   -1.6204   -1.2654 H   0  0  0  0  0  0  0  0  0 26  0  0
    3.4567   -1.8203   -1.5824 C   0  0  0  0  0  0  0  0  0 27  0  0
    4.1487   -1.3004   -0.9262 H   0  0  0  0  0  0  0  0  0 28  0  0
    2.9242   -2.5709   -0.9964 H   0  0  0  0  0  0  0  0  0 29  0  0
    4.0207   -2.3123   -2.3668 H   0  0  0  0  0  0  0  0  0 30  0  0
    1.7567   -1.3704   -2.8275 H   0  0  0  0  0  0  0  0  0 31  0  0
    3.5446    1.0202   -2.3531 H   0  0  0  0  0  0  0  0  0 32  0  0
    2.8850    1.6010   -4.6623 H   0  0  0  0  0  0  0  0  0 33  0  0
    1.9463    0.1106   -4.7912 H   0  0  0  0  0  0  0  0  0 34  0  0
    0.5426    2.1387   -4.2933 H   0  0  0  0  0  0  0  0  0 35  0  0
    0.3770    0.8961   -3.0584 H   0  0  0  0  0  0  0  0  0 36  0  0
    1.3770    2.2970   -2.7380 H   0  0  0  0  0  0  0  0  0 37  0  0
  1  2  1  0
  2  3  1  0
  3  4  1  0
  3  5  1  0
  5  6  1  0
  6  7  2  0
  6  8  1  0
  8  9  1  0
  9 10  4  0
 10 11  1  0
 10 12  4  0
 12 13  1  0
 12 14  4  0
 14 15  1  0
 15 16  1  0
 16 17  2  0
 16 18  1  0
 18 19  1  0
 18 20  1  0
 18 21  1  0
 15 22  1  0
 14 23  4  0
 23 24  1  0
 23 25  4  0
 25 26  1  0
  8 27  1  0
  5 28  1  0
 28 29  1  0
 28 30  1  0
 28 31  1  0
  5 32  1  6
  3 33  1  0
  2 34  1  0
  2 35  1  0
  1 36  1  0
  1 37  1  0
  1 38  1  0
 25  9  4  0
M  END
>  <sample_id>  (575)
train::CCCC(C)C(=O)Nc1ccc(NC(C)=O)cc1__gen0001

>  <partition>  (575)
BAT_EXTERNAL_CONFIRM

>  <method>  (575)
BA_seed193

>  <candidate>  (575)
primary

$$$$
train::CCCC(C)C(=O)Nc1ccc(NC(C)=O)cc1__gen0002
     RDKit          3D

 38 38  0  0  0  0  0  0  0  0999 V2000
   -4.6844   -0.7805   -3.1486 C   0  0  0  0  0  0  0  0  0  0  0  0
   -3.7401   -0.9619   -1.9726 C   0  0  0  0  0  0  0  0  0  1  0  0
   -2.8586   -2.2057   -2.1569 C   0  0  0  0  0  0  0  0  0  2  0  0
   -3.4951   -3.0861   -2.2698 H   0  0  0  0  0  0  0  0  0  3  0  0
   -1.9064   -2.4232   -0.9914 C   0  0  2  0  0  0  0  0  0  4  0  0
   -0.8159   -1.3307   -1.0068 C   0  0  0  0  0  0  0  0  0  5  0  0
   -0.2960   -0.9580   -2.0370 O   0  0  0  0  0  0  0  0  0  6  0  0
   -0.4626   -0.8939    0.2457 N   0  0  0  0  0  0  0  0  0  7  0  0
    0.5191   -0.0007    0.6171 C   0  0  0  0  0  0  0  0  0  8  0  0
    0.6780    0.2848    1.9746 C   0  0  0  0  0  0  0  0  0  9  0  0
    0.0297   -0.1995    2.6932 H   0  0  0  0  0  0  0  0  0 25  0  0
    1.6482    1.1625    2.4190 C   0  0  0  0  0  0  0  0  0 10  0  0
    1.7485    1.3819    3.4671 H   0  0  0  0  0  0  0  0  0 24  0  0
    2.4831    1.7797    1.4932 C   0  0  0  0  0  0  0  0  0 11  0  0
    3.4862    2.6944    1.8805 N   0  0  0  0  0  0  0  0  0 16  0  0
    3.8237    3.1171    3.1116 C   0  0  0  0  0  0  0  0  0 17  0  0
    3.2910    2.7980    4.1467 O   0  0  0  0  0  0  0  0  0 18  0  0
    4.9866    4.1223    3.0766 C   0  0  0  0  0  0  0  0  0 19  0  0
    5.2083    4.4346    4.0937 H   0  0  0  0  0  0  0  0  0 20  0  0
    4.7176    4.9825    2.4839 H   0  0  0  0  0  0  0  0  0 21  0  0
    5.8587    3.6416    2.6517 H   0  0  0  0  0  0  0  0  0 22  0  0
    4.0168    3.0569    1.0982 H   0  0  0  0  0  0  0  0  0 23  0  0
    2.3264    1.5074    0.1401 C   0  0  0  0  0  0  0  0  0 12  0  0
    2.9781    1.9874   -0.5675 H   0  0  0  0  0  0  0  0  0 15  0  0
    1.3696    0.6237   -0.2992 C   0  0  0  0  0  0  0  0  0 13  0  0
    1.2614    0.4236   -1.3511 H   0  0  0  0  0  0  0  0  0 14  0  0
   -0.9893   -1.2936    1.0132 H   0  0  0  0  0  0  0  0  0 26  0  0
   -1.1917   -3.7693   -1.0782 C   0  0  0  0  0  0  0  0  0 27  0  0
   -0.6103   -3.8081   -1.9980 H   0  0  0  0  0  0  0  0  0 28  0  0
   -0.5128   -3.8919   -0.2368 H   0  0  0  0  0  0  0  0  0 29  0  0
   -1.9077   -4.5813   -1.0832 H   0  0  0  0  0  0  0  0  0 30  0  0
   -2.4735   -2.3655   -0.0538 H   0  0  0  0  0  0  0  0  0 31  0  0
   -2.2701   -2.0968   -3.0715 H   0  0  0  0  0  0  0  0  0 32  0  0
   -4.3217   -1.0612   -1.0577 H   0  0  0  0  0  0  0  0  0 33  0  0
   -3.1029   -0.0871   -1.8851 H   0  0  0  0  0  0  0  0  0 34  0  0
   -5.3161    0.0948   -3.0017 H   0  0  0  0  0  0  0  0  0 35  0  0
   -5.3452   -1.6365   -3.2631 H   0  0  0  0  0  0  0  0  0 36  0  0
   -4.1308   -0.6618   -4.0761 H   0  0  0  0  0  0  0  0  0 37  0  0
  1  2  1  0
  2  3  1  0
  3  4  1  0
  3  5  1  0
  5  6  1  0
  6  7  2  0
  6  8  1  0
  8  9  1  0
  9 10  4  0
 10 11  1  0
 10 12  4  0
 12 13  1  0
 12 14  4  0
 14 15  1  0
 15 16  1  0
 16 17  2  0
 16 18  1  0
 18 19  1  0
 18 20  1  0
 18 21  1  0
 15 22  1  0
 14 23  4  0
 23 24  1  0
 23 25  4  0
 25 26  1  0
  8 27  1  0
  5 28  1  0
 28 29  1  0
 28 30  1  0
 28 31  1  0
  5 32  1  1
  3 33  1  0
  2 34  1  0
  2 35  1  0
  1 36  1  0
  1 37  1  0
  1 38  1  0
 25  9  4  0
M  END
>  <sample_id>  (576)
train::CCCC(C)C(=O)Nc1ccc(NC(C)=O)cc1__gen0002

>  <partition>  (576)
BAT_EXTERNAL_CONFIRM

>  <method>  (576)
BA_seed193

>  <candidate>  (576)
primary

$$$$
train::COc1ccc(Cc2noc(CN3CCNC(=O)CC3)n2)cc1OC__gen0000
     RDKit          3D

 47 49  0  0  0  0  0  0  0  0999 V2000
    3.2244   -1.5689   -2.4732 C   0  0  0  0  0  0  0  0  0  0  0  0
    2.3189   -2.1906   -2.4252 H   0  0  0  0  0  0  0  0  0  1  0  0
    4.0519   -2.0796   -1.9760 H   0  0  0  0  0  0  0  0  0  2  0  0
    3.4925   -1.4098   -3.5281 H   0  0  0  0  0  0  0  0  0  3  0  0
    2.9901   -0.2792   -1.9487 O   0  0  0  0  0  0  0  0  0  4  0  0
    2.5809   -0.1870   -0.6602 C   0  0  0  0  0  0  0  0  0  5  0  0
    2.4565   -1.2461    0.2286 C   0  0  0  0  0  0  0  0  0  6  0  0
    2.7151   -2.2493   -0.0850 H   0  0  0  0  0  0  0  0  0 46  0  0
    1.9363   -1.0507    1.4951 C   0  0  0  0  0  0  0  0  0  7  0  0
    1.8168   -1.8985    2.1511 H   0  0  0  0  0  0  0  0  0 45  0  0
    1.5701    0.2167    1.9126 C   0  0  0  0  0  0  0  0  0  8  0  0
    0.8464    0.4281    3.2155 C   0  0  0  0  0  0  0  0  0 17  0  0
   -0.5745    0.6708    2.8632 C   0  0  0  0  0  0  0  0  0 18  0  0
   -1.2201    1.7688    3.0722 N   0  0  0  0  0  0  0  0  0 19  0  0
   -2.4066    1.6334    2.4135 O   0  0  0  0  0  0  0  0  0 20  0  0
   -2.3882    0.4185    1.8478 C   0  0  0  0  0  0  0  0  0 21  0  0
   -3.5495   -0.0256    1.0112 C   0  0  0  0  0  0  0  0  0 23  0  0
   -3.2748   -0.3964   -0.3397 N   0  0  0  0  0  0  0  0  0 24  0  0
   -2.6315    0.5710   -1.2011 C   0  0  0  0  0  0  0  0  0 25  0  0
   -3.0837    1.5473   -0.9844 H   0  0  0  0  0  0  0  0  0 26  0  0
   -2.8990    0.3181   -2.2312 H   0  0  0  0  0  0  0  0  0 40  0  0
   -1.1016    0.6842   -1.0921 C   0  0  0  0  0  0  0  0  0 27  0  0
   -0.7533    1.5998   -1.5797 H   0  0  0  0  0  0  0  0  0 38  0  0
   -0.8147    0.7236   -0.0410 H   0  0  0  0  0  0  0  0  0 39  0  0
   -0.4202   -0.4072   -1.7583 N   0  0  0  0  0  0  0  0  0 28  0  0
    0.3461   -0.1260   -2.3487 H   0  0  0  0  0  0  0  0  0 37  0  0
   -0.5159   -1.7246   -1.4986 C   0  0  0  0  0  0  0  0  0 29  0  0
    0.1361   -2.5374   -2.1270 O   0  0  0  0  0  0  0  0  0 30  0  0
   -1.4354   -2.1467   -0.3645 C   0  0  0  0  0  0  0  0  0 31  0  0
   -1.3302   -3.2442   -0.3135 H   0  0  0  0  0  0  0  0  0 32  0  0
   -1.0871   -1.7093    0.5664 H   0  0  0  0  0  0  0  0  0 33  0  0
   -2.9125   -1.7752   -0.6105 C   0  0  0  0  0  0  0  0  0 34  0  0
   -3.5512   -2.3993    0.0265 H   0  0  0  0  0  0  0  0  0 35  0  0
   -3.1721   -1.9873   -1.6519 H   0  0  0  0  0  0  0  0  0 36  0  0
   -4.0290   -0.8843    1.4947 H   0  0  0  0  0  0  0  0  0 41  0  0
   -4.2602    0.8144    1.0092 H   0  0  0  0  0  0  0  0  0 42  0  0
   -1.2813   -0.2219    2.0969 N   0  0  0  0  0  0  0  0  0 22  0  0
    1.2390    1.3005    3.7604 H   0  0  0  0  0  0  0  0  0 43  0  0
    0.9307   -0.4598    3.8589 H   0  0  0  0  0  0  0  0  0 44  0  0
    1.7247    1.2957    1.0450 C   0  0  0  0  0  0  0  0  0  9  0  0
    1.4303    2.2765    1.3863 H   0  0  0  0  0  0  0  0  0 16  0  0
    2.2179    1.1061   -0.2312 C   0  0  0  0  0  0  0  0  0 10  0  0
    2.3662    2.0916   -1.1556 O   0  0  0  0  0  0  0  0  0 11  0  0
    2.1254    3.4215   -0.7661 C   0  0  0  0  0  0  0  0  0 12  0  0
    2.3443    4.0306   -1.6370 H   0  0  0  0  0  0  0  0  0 13  0  0
    2.7634    3.7176    0.0668 H   0  0  0  0  0  0  0  0  0 14  0  0
    1.0686    3.5704   -0.4933 H   0  0  0  0  0  0  0  0  0 15  0  0
  1  2  1  0
  1  3  1  0
  1  4  1  0
  1  5  1  0
  5  6  1  0
  6  7  4  0
  7  8  1  0
  7  9  4  0
  9 10  1  0
  9 11  4  0
 11 12  1  0
 12 13  1  0
 13 14  4  0
 14 15  4  0
 15 16  4  0
 16 17  1  0
 17 18  1  0
 18 19  1  0
 19 20  1  0
 19 21  1  0
 19 22  1  0
 22 23  1  0
 22 24  1  0
 22 25  1  0
 25 26  1  0
 25 27  1  0
 27 28  2  0
 27 29  1  0
 29 30  1  0
 29 31  1  0
 29 32  1  0
 32 33  1  0
 32 34  1  0
 17 35  1  0
 17 36  1  0
 16 37  4  0
 12 38  1  0
 12 39  1  0
 11 40  4  0
 40 41  1  0
 40 42  4  0
 42 43  1  0
 43 44  1  0
 44 45  1  0
 44 46  1  0
 44 47  1  0
 42  6  4  0
 37 13  4  0
 32 18  1  0
M  END
>  <sample_id>  (577)
train::COc1ccc(Cc2noc(CN3CCNC(=O)CC3)n2)cc1OC__gen0000

>  <partition>  (577)
BAT_EXTERNAL_CONFIRM

>  <method>  (577)
BA_seed193

>  <candidate>  (577)
primary

$$$$
train::COc1ccc(Cc2noc(CN3CCNC(=O)CC3)n2)cc1OC__gen0001
     RDKit          3D

 47 49  0  0  0  0  0  0  0  0999 V2000
    0.1939    4.8639    0.3366 C   0  0  0  0  0  0  0  0  0  0  0  0
   -0.8330    4.6009    0.0628 H   0  0  0  0  0  0  0  0  0  1  0  0
    0.1974    5.5032    1.2180 H   0  0  0  0  0  0  0  0  0  2  0  0
    0.6541    5.3965   -0.4997 H   0  0  0  0  0  0  0  0  0  3  0  0
    0.9341    3.7179    0.6854 O   0  0  0  0  0  0  0  0  0  4  0  0
    1.0907    2.7355   -0.2225 C   0  0  0  0  0  0  0  0  0  5  0  0
    0.5953    2.7542   -1.5191 C   0  0  0  0  0  0  0  0  0  6  0  0
    0.0315    3.6054   -1.8660 H   0  0  0  0  0  0  0  0  0 46  0  0
    0.7871    1.6851   -2.3700 C   0  0  0  0  0  0  0  0  0  7  0  0
    0.3761    1.7091   -3.3646 H   0  0  0  0  0  0  0  0  0 45  0  0
    1.4953    0.5759   -1.9384 C   0  0  0  0  0  0  0  0  0  8  0  0
    1.6177   -0.6389   -2.8326 C   0  0  0  0  0  0  0  0  0 17  0  0
    0.3185   -1.3492   -2.7365 C   0  0  0  0  0  0  0  0  0 18  0  0
   -0.6258   -1.3029   -3.6299 N   0  0  0  0  0  0  0  0  0 19  0  0
   -1.6962   -1.9332   -3.0693 O   0  0  0  0  0  0  0  0  0 20  0  0
   -1.3029   -2.3293   -1.8473 C   0  0  0  0  0  0  0  0  0 21  0  0
   -2.2921   -2.9254   -0.9137 C   0  0  0  0  0  0  0  0  0 23  0  0
   -2.2582   -2.3380    0.4091 N   0  0  0  0  0  0  0  0  0 24  0  0
   -1.2472   -2.8668    1.3103 C   0  0  0  0  0  0  0  0  0 25  0  0
   -0.9435   -3.8503    0.9616 H   0  0  0  0  0  0  0  0  0 26  0  0
   -1.6932   -2.9656    2.2966 H   0  0  0  0  0  0  0  0  0 40  0  0
    0.0138   -1.9831    1.4172 C   0  0  0  0  0  0  0  0  0 27  0  0
    0.2062   -1.5674    0.4296 H   0  0  0  0  0  0  0  0  0 38  0  0
    0.8777   -2.5709    1.7218 H   0  0  0  0  0  0  0  0  0 39  0  0
   -0.1306   -0.9268    2.3866 N   0  0  0  0  0  0  0  0  0 28  0  0
    0.6928   -0.6637    2.9137 H   0  0  0  0  0  0  0  0  0 37  0  0
   -1.1417   -0.0469    2.5402 C   0  0  0  0  0  0  0  0  0 29  0  0
   -0.9945    0.9358    3.2364 O   0  0  0  0  0  0  0  0  0 30  0  0
   -2.4571   -0.3156    1.8281 C   0  0  0  0  0  0  0  0  0 31  0  0
   -2.9723    0.6321    1.7974 H   0  0  0  0  0  0  0  0  0 32  0  0
   -3.0425   -1.0067    2.4201 H   0  0  0  0  0  0  0  0  0 33  0  0
   -2.3431   -0.8835    0.4091 C   0  0  0  0  0  0  0  0  0 34  0  0
   -1.4924   -0.4279   -0.1140 H   0  0  0  0  0  0  0  0  0 35  0  0
   -3.2586   -0.6245   -0.1382 H   0  0  0  0  0  0  0  0  0 36  0  0
   -3.2963   -2.7785   -1.3307 H   0  0  0  0  0  0  0  0  0 41  0  0
   -2.1290   -4.0010   -0.8047 H   0  0  0  0  0  0  0  0  0 42  0  0
   -0.0725   -1.9904   -1.5992 N   0  0  0  0  0  0  0  0  0 22  0  0
    2.4175   -1.3028   -2.4938 H   0  0  0  0  0  0  0  0  0 43  0  0
    1.7809   -0.3529   -3.8722 H   0  0  0  0  0  0  0  0  0 44  0  0
    1.9998    0.5384   -0.6475 C   0  0  0  0  0  0  0  0  0  9  0  0
    2.5383   -0.3398   -0.3380 H   0  0  0  0  0  0  0  0  0 16  0  0
    1.8205    1.6109    0.2118 C   0  0  0  0  0  0  0  0  0 10  0  0
    2.2916    1.6670    1.4826 O   0  0  0  0  0  0  0  0  0 11  0  0
    3.1517    0.6319    1.9142 C   0  0  0  0  0  0  0  0  0 12  0  0
    4.0330    0.5269    1.2721 H   0  0  0  0  0  0  0  0  0 13  0  0
    3.4855    0.9258    2.9107 H   0  0  0  0  0  0  0  0  0 14  0  0
    2.6215   -0.3343    1.9758 H   0  0  0  0  0  0  0  0  0 15  0  0
  1  2  1  0
  1  3  1  0
  1  4  1  0
  1  5  1  0
  5  6  1  0
  6  7  4  0
  7  8  1  0
  7  9  4  0
  9 10  1  0
  9 11  4  0
 11 12  1  0
 12 13  1  0
 13 14  4  0
 14 15  4  0
 15 16  4  0
 16 17  1  0
 17 18  1  0
 18 19  1  0
 19 20  1  0
 19 21  1  0
 19 22  1  0
 22 23  1  0
 22 24  1  0
 22 25  1  0
 25 26  1  0
 25 27  1  0
 27 28  2  0
 27 29  1  0
 29 30  1  0
 29 31  1  0
 29 32  1  0
 32 33  1  0
 32 34  1  0
 17 35  1  0
 17 36  1  0
 16 37  4  0
 12 38  1  0
 12 39  1  0
 11 40  4  0
 40 41  1  0
 40 42  4  0
 42 43  1  0
 43 44  1  0
 44 45  1  0
 44 46  1  0
 44 47  1  0
 42  6  4  0
 37 13  4  0
 32 18  1  0
M  END
>  <sample_id>  (578)
train::COc1ccc(Cc2noc(CN3CCNC(=O)CC3)n2)cc1OC__gen0001

>  <partition>  (578)
BAT_EXTERNAL_CONFIRM

>  <method>  (578)
BA_seed193

>  <candidate>  (578)
primary

$$$$
train::COc1ccc(Cc2noc(CN3CCNC(=O)CC3)n2)cc1OC__gen0002
     RDKit          3D

 47 49  0  0  0  0  0  0  0  0999 V2000
   -2.7775    3.1506    0.9332 C   0  0  0  0  0  0  0  0  0  0  0  0
   -1.8741    3.5541    0.4763 H   0  0  0  0  0  0  0  0  0  1  0  0
   -3.6244    3.3053    0.2564 H   0  0  0  0  0  0  0  0  0  2  0  0
   -2.9722    3.6584    1.8736 H   0  0  0  0  0  0  0  0  0  3  0  0
   -2.5975    1.7835    1.2566 O   0  0  0  0  0  0  0  0  0  4  0  0
   -2.3324    0.9217    0.2536 C   0  0  0  0  0  0  0  0  0  5  0  0
   -2.2651    1.2387   -1.0791 C   0  0  0  0  0  0  0  0  0  6  0  0
   -2.4024    2.2416   -1.4133 H   0  0  0  0  0  0  0  0  0 46  0  0
   -1.9901    0.2508   -2.0350 C   0  0  0  0  0  0  0  0  0  7  0  0
   -1.9143    0.5286   -3.0709 H   0  0  0  0  0  0  0  0  0 45  0  0
   -1.8206   -1.0695   -1.6382 C   0  0  0  0  0  0  0  0  0  8  0  0
   -1.3793   -2.1266   -2.6174 C   0  0  0  0  0  0  0  0  0 17  0  0
   -0.0038   -2.4514   -2.2037 C   0  0  0  0  0  0  0  0  0 18  0  0
    0.4446   -3.6261   -1.8553 N   0  0  0  0  0  0  0  0  0 19  0  0
    1.6855   -3.3952   -1.3149 O   0  0  0  0  0  0  0  0  0 20  0  0
    1.9135   -2.0888   -1.4000 C   0  0  0  0  0  0  0  0  0 21  0  0
    3.0794   -1.4552   -0.7468 C   0  0  0  0  0  0  0  0  0 23  0  0
    2.7172   -0.2498   -0.0138 N   0  0  0  0  0  0  0  0  0 24  0  0
    2.4593    0.8729   -0.8621 C   0  0  0  0  0  0  0  0  0 25  0  0
    1.4565    0.8556   -1.3176 H   0  0  0  0  0  0  0  0  0 26  0  0
    3.1896    0.8771   -1.6675 H   0  0  0  0  0  0  0  0  0 40  0  0
    2.6045    2.2054   -0.0763 C   0  0  0  0  0  0  0  0  0 27  0  0
    3.4785    2.1452    0.5415 H   0  0  0  0  0  0  0  0  0 38  0  0
    2.7445    3.0141   -0.8143 H   0  0  0  0  0  0  0  0  0 39  0  0
    1.4220    2.5106    0.6691 N   0  0  0  0  0  0  0  0  0 28  0  0
    0.8920    3.3184    0.4163 H   0  0  0  0  0  0  0  0  0 37  0  0
    0.9548    1.8429    1.7622 C   0  0  0  0  0  0  0  0  0 29  0  0
    0.0479    2.3003    2.4145 O   0  0  0  0  0  0  0  0  0 30  0  0
    1.7002    0.5589    2.0911 C   0  0  0  0  0  0  0  0  0 31  0  0
    1.1883    0.1625    2.9721 H   0  0  0  0  0  0  0  0  0 32  0  0
    2.7342    0.7416    2.3637 H   0  0  0  0  0  0  0  0  0 33  0  0
    1.6695   -0.4719    0.9537 C   0  0  0  0  0  0  0  0  0 34  0  0
    0.6728   -0.4329    0.4871 H   0  0  0  0  0  0  0  0  0 35  0  0
    1.8080   -1.4722    1.3916 H   0  0  0  0  0  0  0  0  0 36  0  0
    3.8259   -1.1744   -1.4944 H   0  0  0  0  0  0  0  0  0 41  0  0
    3.5216   -2.1613   -0.0581 H   0  0  0  0  0  0  0  0  0 42  0  0
    0.8909   -1.4625   -1.9473 N   0  0  0  0  0  0  0  0  0 22  0  0
   -1.3876   -1.7278   -3.6383 H   0  0  0  0  0  0  0  0  0 43  0  0
   -2.0003   -3.0247   -2.5562 H   0  0  0  0  0  0  0  0  0 44  0  0
   -1.8826   -1.3850   -0.2986 C   0  0  0  0  0  0  0  0  0  9  0  0
   -1.7411   -2.4135   -0.0126 H   0  0  0  0  0  0  0  0  0 16  0  0
   -2.1455   -0.4338    0.6701 C   0  0  0  0  0  0  0  0  0 10  0  0
   -2.1821   -0.6364    1.9959 O   0  0  0  0  0  0  0  0  0 11  0  0
   -1.9775   -1.9464    2.4784 C   0  0  0  0  0  0  0  0  0 12  0  0
   -0.9954   -2.3296    2.2125 H   0  0  0  0  0  0  0  0  0 13  0  0
   -2.0720   -1.8681    3.5622 H   0  0  0  0  0  0  0  0  0 14  0  0
   -2.7634   -2.6355    2.1003 H   0  0  0  0  0  0  0  0  0 15  0  0
  1  2  1  0
  1  3  1  0
  1  4  1  0
  1  5  1  0
  5  6  1  0
  6  7  4  0
  7  8  1  0
  7  9  4  0
  9 10  1  0
  9 11  4  0
 11 12  1  0
 12 13  1  0
 13 14  4  0
 14 15  4  0
 15 16  4  0
 16 17  1  0
 17 18  1  0
 18 19  1  0
 19 20  1  0
 19 21  1  0
 19 22  1  0
 22 23  1  0
 22 24  1  0
 22 25  1  0
 25 26  1  0
 25 27  1  0
 27 28  2  0
 27 29  1  0
 29 30  1  0
 29 31  1  0
 29 32  1  0
 32 33  1  0
 32 34  1  0
 17 35  1  0
 17 36  1  0
 16 37  4  0
 12 38  1  0
 12 39  1  0
 11 40  4  0
 40 41  1  0
 40 42  4  0
 42 43  1  0
 43 44  1  0
 44 45  1  0
 44 46  1  0
 44 47  1  0
 42  6  4  0
 37 13  4  0
 32 18  1  0
M  END
>  <sample_id>  (579)
train::COc1ccc(Cc2noc(CN3CCNC(=O)CC3)n2)cc1OC__gen0002

>  <partition>  (579)
BAT_EXTERNAL_CONFIRM

>  <method>  (579)
BA_seed193

>  <candidate>  (579)
primary

$$$$
train::O=C1CN(C(=O)COC(=O)c2ccc[n+]([O-])c2)c2ccccc2N1__gen0000
     RDKit          3D

 37 39  0  0  0  0  0  0  0  0999 V2000
   -2.7359    3.5137   -1.4624 O   0  0  0  0  0  0  0  0  0  0  0  0
   -1.8695    2.6745   -1.5065 C   0  0  0  0  0  0  0  0  0  1  0  0
   -2.0735    1.3880   -1.0964 N   0  0  0  0  0  0  0  0  0  2  0  0
   -2.9996    1.1375   -0.7825 H   0  0  0  0  0  0  0  0  0 36  0  0
   -1.1260    0.3766   -1.2400 C   0  0  0  0  0  0  0  0  0  3  0  0
   -1.4825   -0.9640   -1.1895 C   0  0  0  0  0  0  0  0  0  4  0  0
   -2.5083   -1.2353   -1.0041 H   0  0  0  0  0  0  0  0  0 35  0  0
   -0.5162   -1.9379   -1.3650 C   0  0  0  0  0  0  0  0  0  5  0  0
   -0.7967   -2.9833   -1.3144 H   0  0  0  0  0  0  0  0  0 34  0  0
    0.7962   -1.5880   -1.6157 C   0  0  0  0  0  0  0  0  0  6  0  0
    1.5557   -2.3387   -1.7631 H   0  0  0  0  0  0  0  0  0 33  0  0
    1.1656   -0.2569   -1.6435 C   0  0  0  0  0  0  0  0  0  7  0  0
    2.1937    0.0267   -1.8459 H   0  0  0  0  0  0  0  0  0 32  0  0
    0.2209    0.7348   -1.4243 C   0  0  0  0  0  0  0  0  0  8  0  0
    0.5145    2.1040   -1.3750 N   0  0  0  0  0  0  0  0  0  9  0  0
    1.4860    2.7082   -0.6540 C   0  0  0  0  0  0  0  0  0 10  0  0
    1.7519    3.8863   -0.7781 O   0  0  0  0  0  0  0  0  0 11  0  0
    2.2430    1.8718    0.3684 C   0  0  0  0  0  0  0  0  0 12  0  0
    3.0566    1.3028   -0.1123 H   0  0  0  0  0  0  0  0  0 13  0  0
    1.3456    0.9623    1.0253 O   0  0  0  0  0  0  0  0  0 14  0  0
    1.7657   -0.2654    1.2613 C   0  0  0  0  0  0  0  0  0 15  0  0
    2.8814   -0.6808    1.0487 O   0  0  0  0  0  0  0  0  0 16  0  0
    0.6635   -1.1200    1.7860 C   0  0  0  0  0  0  0  0  0 17  0  0
   -0.6272   -0.6363    1.8662 C   0  0  0  0  0  0  0  0  0 18  0  0
   -0.8868    0.3901    1.6396 H   0  0  0  0  0  0  0  0  0 27  0  0
   -1.6710   -1.4265    2.2125 N   0  0  0  0  0  0  0  0  0 19  0  0
   -2.8333   -0.9686    2.2328 O   0  0  0  0  0  0  0  0  0 26  0  0
   -1.4174   -2.7300    2.5349 C   0  0  0  0  0  0  0  0  0 20  0  0
   -2.2900   -3.2980    2.8000 H   0  0  0  0  0  0  0  0  0 25  0  0
   -0.1490   -3.2531    2.4882 C   0  0  0  0  0  0  0  0  0 21  0  0
   -0.0041   -4.2882    2.7540 H   0  0  0  0  0  0  0  0  0 24  0  0
    0.9139   -2.4494    2.0992 C   0  0  0  0  0  0  0  0  0 22  0  0
    1.9191   -2.8418    2.0387 H   0  0  0  0  0  0  0  0  0 23  0  0
    2.6658    2.5568    1.1104 H   0  0  0  0  0  0  0  0  0 28  0  0
   -0.4678    2.9304   -2.0640 C   0  0  0  0  0  0  0  0  0 29  0  0
   -0.2137    3.9842   -1.9005 H   0  0  0  0  0  0  0  0  0 30  0  0
   -0.4706    2.7134   -3.1291 H   0  0  0  0  0  0  0  0  0 31  0  0
  1  2  2  0
  2  3  1  0
  3  4  1  0
  3  5  1  0
  5  6  4  0
  6  7  1  0
  6  8  4  0
  8  9  1  0
  8 10  4  0
 10 11  1  0
 10 12  4  0
 12 13  1  0
 12 14  4  0
 14 15  1  0
 15 16  1  0
 16 17  2  0
 16 18  1  0
 18 19  1  0
 18 20  1  0
 20 21  1  0
 21 22  2  0
 21 23  1  0
 23 24  4  0
 24 25  1  0
 24 26  4  0
 26 27  1  0
 26 28  4  0
 28 29  1  0
 28 30  4  0
 30 31  1  0
 30 32  4  0
 32 33  1  0
 18 34  1  0
 15 35  1  0
 35 36  1  0
 35 37  1  0
 35  2  1  0
 14  5  4  0
 32 23  4  0
M  CHG  2  26   1  27  -1
M  END
>  <sample_id>  (580)
train::O=C1CN(C(=O)COC(=O)c2ccc[n+]([O-])c2)c2ccccc2N1__gen0000

>  <partition>  (580)
BAT_EXTERNAL_CONFIRM

>  <method>  (580)
BA_seed193

>  <candidate>  (580)
primary

$$$$
train::O=C1CN(C(=O)COC(=O)c2ccc[n+]([O-])c2)c2ccccc2N1__gen0001
     RDKit          3D

 37 39  0  0  0  0  0  0  0  0999 V2000
    2.1450   -0.7657    4.1744 O   0  0  0  0  0  0  0  0  0  0  0  0
    2.0399   -0.4788    3.0117 C   0  0  0  0  0  0  0  0  0  1  0  0
    1.3500   -1.2417    2.1242 N   0  0  0  0  0  0  0  0  0  2  0  0
    0.9148   -2.0909    2.4664 H   0  0  0  0  0  0  0  0  0 36  0  0
    1.2354   -0.9491    0.7556 C   0  0  0  0  0  0  0  0  0  3  0  0
    0.8734   -1.9276   -0.1554 C   0  0  0  0  0  0  0  0  0  4  0  0
    0.6128   -2.9206    0.2010 H   0  0  0  0  0  0  0  0  0 35  0  0
    0.8301   -1.6300   -1.5025 C   0  0  0  0  0  0  0  0  0  5  0  0
    0.5343   -2.3827   -2.2181 H   0  0  0  0  0  0  0  0  0 34  0  0
    1.1956   -0.3647   -1.9416 C   0  0  0  0  0  0  0  0  0  6  0  0
    1.2068   -0.1308   -2.9953 H   0  0  0  0  0  0  0  0  0 33  0  0
    1.5479    0.6180   -1.0373 C   0  0  0  0  0  0  0  0  0  7  0  0
    1.8482    1.5979   -1.3778 H   0  0  0  0  0  0  0  0  0 32  0  0
    1.5421    0.3393    0.3312 C   0  0  0  0  0  0  0  0  0  8  0  0
    1.8724    1.2944    1.3080 N   0  0  0  0  0  0  0  0  0  9  0  0
    1.3120    2.5059    1.4918 C   0  0  0  0  0  0  0  0  0 10  0  0
    1.7169    3.2963    2.3103 O   0  0  0  0  0  0  0  0  0 11  0  0
    0.1030    2.8486    0.6139 C   0  0  0  0  0  0  0  0  0 12  0  0
   -0.4753    3.6166    1.1582 H   0  0  0  0  0  0  0  0  0 13  0  0
   -0.7254    1.7163    0.3949 O   0  0  0  0  0  0  0  0  0 14  0  0
   -1.2066    1.5457   -0.8252 C   0  0  0  0  0  0  0  0  0 15  0  0
   -1.0313    2.3178   -1.7556 O   0  0  0  0  0  0  0  0  0 16  0  0
   -1.9234    0.2493   -0.9794 C   0  0  0  0  0  0  0  0  0 17  0  0
   -2.2618   -0.1611   -2.2454 C   0  0  0  0  0  0  0  0  0 18  0  0
   -2.0535    0.4473   -3.1043 H   0  0  0  0  0  0  0  0  0 27  0  0
   -2.8529   -1.3581   -2.4690 N   0  0  0  0  0  0  0  0  0 19  0  0
   -3.1056   -1.7167   -3.6374 O   0  0  0  0  0  0  0  0  0 26  0  0
   -3.1323   -2.1563   -1.4135 C   0  0  0  0  0  0  0  0  0 20  0  0
   -3.6124   -3.0881   -1.6649 H   0  0  0  0  0  0  0  0  0 25  0  0
   -2.8436   -1.7758   -0.1232 C   0  0  0  0  0  0  0  0  0 21  0  0
   -3.0789   -2.4453    0.6890 H   0  0  0  0  0  0  0  0  0 24  0  0
   -2.2279   -0.5594    0.1183 C   0  0  0  0  0  0  0  0  0 22  0  0
   -1.9711   -0.2419    1.1180 H   0  0  0  0  0  0  0  0  0 23  0  0
    0.4238    3.2749   -0.3475 H   0  0  0  0  0  0  0  0  0 28  0  0
    2.6899    0.7490    2.3846 C   0  0  0  0  0  0  0  0  0 29  0  0
    3.6776    0.4588    1.9939 H   0  0  0  0  0  0  0  0  0 30  0  0
    2.8299    1.5090    3.1481 H   0  0  0  0  0  0  0  0  0 31  0  0
  1  2  2  0
  2  3  1  0
  3  4  1  0
  3  5  1  0
  5  6  4  0
  6  7  1  0
  6  8  4  0
  8  9  1  0
  8 10  4  0
 10 11  1  0
 10 12  4  0
 12 13  1  0
 12 14  4  0
 14 15  1  0
 15 16  1  0
 16 17  2  0
 16 18  1  0
 18 19  1  0
 18 20  1  0
 20 21  1  0
 21 22  2  0
 21 23  1  0
 23 24  4  0
 24 25  1  0
 24 26  4  0
 26 27  1  0
 26 28  4  0
 28 29  1  0
 28 30  4  0
 30 31  1  0
 30 32  4  0
 32 33  1  0
 18 34  1  0
 15 35  1  0
 35 36  1  0
 35 37  1  0
 35  2  1  0
 14  5  4  0
 32 23  4  0
M  CHG  2  26   1  27  -1
M  END
>  <sample_id>  (581)
train::O=C1CN(C(=O)COC(=O)c2ccc[n+]([O-])c2)c2ccccc2N1__gen0001

>  <partition>  (581)
BAT_EXTERNAL_CONFIRM

>  <method>  (581)
BA_seed193

>  <candidate>  (581)
primary

$$$$
train::O=C1CN(C(=O)COC(=O)c2ccc[n+]([O-])c2)c2ccccc2N1__gen0002
     RDKit          3D

 37 39  0  0  0  0  0  0  0  0999 V2000
    1.1653   -0.4641   -1.7895 O   0  0  0  0  0  0  0  0  0  0  0  0
    1.5233    0.0966   -0.7786 C   0  0  0  0  0  0  0  0  0  1  0  0
    2.6104   -0.2947   -0.0646 N   0  0  0  0  0  0  0  0  0  2  0  0
    3.1593   -1.0588   -0.4449 H   0  0  0  0  0  0  0  0  0 36  0  0
    3.0350    0.3422    1.1006 C   0  0  0  0  0  0  0  0  0  3  0  0
    4.3248    0.1951    1.5948 C   0  0  0  0  0  0  0  0  0  4  0  0
    5.0390   -0.3960    1.0392 H   0  0  0  0  0  0  0  0  0 35  0  0
    4.6958    0.8190    2.7684 C   0  0  0  0  0  0  0  0  0  5  0  0
    5.6997    0.7103    3.1384 H   0  0  0  0  0  0  0  0  0 34  0  0
    3.7706    1.5882    3.4644 C   0  0  0  0  0  0  0  0  0  6  0  0
    4.0623    2.0814    4.3771 H   0  0  0  0  0  0  0  0  0 33  0  0
    2.4738    1.7240    2.9996 C   0  0  0  0  0  0  0  0  0  7  0  0
    1.7594    2.3381    3.5275 H   0  0  0  0  0  0  0  0  0 32  0  0
    2.0953    1.0977    1.8218 C   0  0  0  0  0  0  0  0  0  8  0  0
    0.8011    1.1778    1.2757 N   0  0  0  0  0  0  0  0  0  9  0  0
   -0.2505    0.8090    2.0367 C   0  0  0  0  0  0  0  0  0 10  0  0
   -0.1575    0.5651    3.2258 O   0  0  0  0  0  0  0  0  0 11  0  0
   -1.6373    0.7761    1.3891 C   0  0  0  0  0  0  0  0  0 12  0  0
   -1.9693    1.7890    1.1146 H   0  0  0  0  0  0  0  0  0 13  0  0
   -1.7150   -0.0694    0.2201 O   0  0  0  0  0  0  0  0  0 14  0  0
   -2.7720    0.1455   -0.5560 C   0  0  0  0  0  0  0  0  0 15  0  0
   -3.5835    1.0171   -0.3353 O   0  0  0  0  0  0  0  0  0 16  0  0
   -2.8942   -0.8042   -1.6901 C   0  0  0  0  0  0  0  0  0 17  0  0
   -1.8164   -1.4627   -2.2743 C   0  0  0  0  0  0  0  0  0 18  0  0
   -0.7805   -1.3147   -2.0076 H   0  0  0  0  0  0  0  0  0 27  0  0
   -1.9811   -2.3246   -3.2951 N   0  0  0  0  0  0  0  0  0 19  0  0
   -0.9992   -2.8924   -3.7973 O   0  0  0  0  0  0  0  0  0 26  0  0
   -3.2447   -2.5525   -3.7619 C   0  0  0  0  0  0  0  0  0 20  0  0
   -3.3009   -3.2590   -4.5758 H   0  0  0  0  0  0  0  0  0 25  0  0
   -4.3520   -1.9407   -3.2137 C   0  0  0  0  0  0  0  0  0 21  0  0
   -5.3165   -2.1697   -3.6229 H   0  0  0  0  0  0  0  0  0 24  0  0
   -4.1867   -1.0552   -2.1611 C   0  0  0  0  0  0  0  0  0 22  0  0
   -5.0246   -0.5369   -1.7183 H   0  0  0  0  0  0  0  0  0 23  0  0
   -2.3297    0.3948    2.1498 H   0  0  0  0  0  0  0  0  0 28  0  0
    0.8379    1.3084   -0.1687 C   0  0  0  0  0  0  0  0  0 29  0  0
   -0.1659    1.4198   -0.5886 H   0  0  0  0  0  0  0  0  0 30  0  0
    1.4245    2.2005   -0.3991 H   0  0  0  0  0  0  0  0  0 31  0  0
  1  2  2  0
  2  3  1  0
  3  4  1  0
  3  5  1  0
  5  6  4  0
  6  7  1  0
  6  8  4  0
  8  9  1  0
  8 10  4  0
 10 11  1  0
 10 12  4  0
 12 13  1  0
 12 14  4  0
 14 15  1  0
 15 16  1  0
 16 17  2  0
 16 18  1  0
 18 19  1  0
 18 20  1  0
 20 21  1  0
 21 22  2  0
 21 23  1  0
 23 24  4  0
 24 25  1  0
 24 26  4  0
 26 27  1  0
 26 28  4  0
 28 29  1  0
 28 30  4  0
 30 31  1  0
 30 32  4  0
 32 33  1  0
 18 34  1  0
 15 35  1  0
 35 36  1  0
 35 37  1  0
 35  2  1  0
 14  5  4  0
 32 23  4  0
M  CHG  2  26   1  27  -1
M  END
>  <sample_id>  (582)
train::O=C1CN(C(=O)COC(=O)c2ccc[n+]([O-])c2)c2ccccc2N1__gen0002

>  <partition>  (582)
BAT_EXTERNAL_CONFIRM

>  <method>  (582)
BA_seed193

>  <candidate>  (582)
primary

$$$$
train::Cn1c(SCC(=O)NCCc2ccccc2)nnc1C1CCCCC1__gen0000
     RDKit          3D

 51 53  0  0  0  0  0  0  0  0999 V2000
   -0.7176   -1.0588    3.6030 C   0  0  0  0  0  0  0  0  0  0  0  0
   -0.2549   -0.9826    2.2512 N   0  0  0  0  0  0  0  0  0  1  0  0
   -0.1585   -1.9812    1.3242 C   0  0  0  0  0  0  0  0  0  2  0  0
   -0.6588   -3.6103    1.6753 S   0  0  0  0  0  0  0  0  0 23  0  0
   -0.3416   -4.4226    0.0920 C   0  0  0  0  0  0  0  0  0 24  0  0
   -0.3792   -5.4893    0.3050 H   0  0  0  0  0  0  0  0  0 25  0  0
    0.6473   -4.1203   -0.2568 H   0  0  0  0  0  0  0  0  0 26  0  0
   -1.4115   -4.1088   -0.9744 C   0  0  0  0  0  0  0  0  0 27  0  0
   -2.3364   -4.8664   -1.1922 O   0  0  0  0  0  0  0  0  0 28  0  0
   -1.2130   -2.9324   -1.5757 N   0  0  0  0  0  0  0  0  0 29  0  0
   -0.4905   -2.3083   -1.2332 H   0  0  0  0  0  0  0  0  0 30  0  0
   -2.1366   -2.3606   -2.5313 C   0  0  0  0  0  0  0  0  0 31  0  0
   -2.8309   -3.1395   -2.8521 H   0  0  0  0  0  0  0  0  0 32  0  0
   -2.7024   -1.5631   -2.0493 H   0  0  0  0  0  0  0  0  0 33  0  0
   -1.3454   -1.8115   -3.7350 C   0  0  0  0  0  0  0  0  0 34  0  0
   -0.2712   -0.8688   -3.2633 C   0  0  0  0  0  0  0  0  0 35  0  0
    1.0304   -1.3107   -3.0985 C   0  0  0  0  0  0  0  0  0 36  0  0
    1.2938   -2.3348   -3.3438 H   0  0  0  0  0  0  0  0  0 45  0  0
    2.0121   -0.4515   -2.6166 C   0  0  0  0  0  0  0  0  0 37  0  0
    3.0164   -0.8230   -2.4888 H   0  0  0  0  0  0  0  0  0 44  0  0
    1.6916    0.8480   -2.2723 C   0  0  0  0  0  0  0  0  0 38  0  0
    2.4522    1.5141   -1.9106 H   0  0  0  0  0  0  0  0  0 43  0  0
    0.3908    1.2905   -2.4252 C   0  0  0  0  0  0  0  0  0 39  0  0
    0.1384    2.3083   -2.1853 H   0  0  0  0  0  0  0  0  0 42  0  0
   -0.5781    0.4394   -2.9196 C   0  0  0  0  0  0  0  0  0 40  0  0
   -1.5921    0.7919   -3.0324 H   0  0  0  0  0  0  0  0  0 41  0  0
   -2.0342   -1.3006   -4.4060 H   0  0  0  0  0  0  0  0  0 46  0  0
   -0.9024   -2.6508   -4.2717 H   0  0  0  0  0  0  0  0  0 47  0  0
    0.3324   -1.5626    0.2028 N   0  0  0  0  0  0  0  0  0  3  0  0
    0.5868   -0.2400    0.3724 N   0  0  0  0  0  0  0  0  0  4  0  0
    0.2312    0.1132    1.5657 C   0  0  0  0  0  0  0  0  0  5  0  0
    0.3403    1.5158    2.1036 C   0  0  2  0  0  0  0  0  0  6  0  0
    0.0884    1.5108    3.1606 H   0  0  0  0  0  0  0  0  0 22  0  0
   -0.6363    2.4069    1.3250 C   0  0  0  0  0  0  0  0  0  7  0  0
   -0.4197    2.3172    0.2596 H   0  0  0  0  0  0  0  0  0 20  0  0
   -1.6690    2.0630    1.4778 H   0  0  0  0  0  0  0  0  0 21  0  0
   -0.5043    3.8570    1.7692 C   0  0  0  0  0  0  0  0  0  8  0  0
   -1.1950    4.4794    1.2014 H   0  0  0  0  0  0  0  0  0 18  0  0
   -0.7921    3.9218    2.8167 H   0  0  0  0  0  0  0  0  0 19  0  0
    0.9221    4.3493    1.5890 C   0  0  0  0  0  0  0  0  0  9  0  0
    1.1953    4.3330    0.5363 H   0  0  0  0  0  0  0  0  0 16  0  0
    0.9957    5.3794    1.9338 H   0  0  0  0  0  0  0  0  0 17  0  0
    1.8799    3.4656    2.3682 C   0  0  0  0  0  0  0  0  0 10  0  0
    2.9084    3.8181    2.2106 H   0  0  0  0  0  0  0  0  0 14  0  0
    1.6737    3.5321    3.4295 H   0  0  0  0  0  0  0  0  0 15  0  0
    1.7710    2.0202    1.9074 C   0  0  0  0  0  0  0  0  0 11  0  0
    2.0172    1.9437    0.8469 H   0  0  0  0  0  0  0  0  0 12  0  0
    2.4581    1.3775    2.4608 H   0  0  0  0  0  0  0  0  0 13  0  0
   -1.3665   -0.2217    3.8368 H   0  0  0  0  0  0  0  0  0 48  0  0
    0.1270   -1.0751    4.2886 H   0  0  0  0  0  0  0  0  0 49  0  0
   -1.2624   -2.0010    3.7204 H   0  0  0  0  0  0  0  0  0 50  0  0
  1  2  1  0
  2  3  4  0
  3  4  1  0
  4  5  1  0
  5  6  1  0
  5  7  1  0
  5  8  1  0
  8  9  2  0
  8 10  1  0
 10 11  1  0
 10 12  1  0
 12 13  1  0
 12 14  1  0
 12 15  1  0
 15 16  1  0
 16 17  4  0
 17 18  1  0
 17 19  4  0
 19 20  1  0
 19 21  4  0
 21 22  1  0
 21 23  4  0
 23 24  1  0
 23 25  4  0
 25 26  1  0
 15 27  1  0
 15 28  1  0
  3 29  4  0
 29 30  4  0
 30 31  4  0
 31 32  1  0
 32 33  1  1
 32 34  1  0
 34 35  1  0
 34 36  1  0
 34 37  1  0
 37 38  1  0
 37 39  1  0
 37 40  1  0
 40 41  1  0
 40 42  1  0
 40 43  1  0
 43 44  1  0
 43 45  1  0
 43 46  1  0
 46 47  1  0
 46 48  1  0
  1 49  1  0
  1 50  1  0
  1 51  1  0
 31  2  4  0
 46 32  1  0
 25 16  4  0
M  END
>  <sample_id>  (583)
train::Cn1c(SCC(=O)NCCc2ccccc2)nnc1C1CCCCC1__gen0000

>  <partition>  (583)
BAT_EXTERNAL_CONFIRM

>  <method>  (583)
BA_seed193

>  <candidate>  (583)
primary

$$$$
train::Cn1c(SCC(=O)NCCc2ccccc2)nnc1C1CCCCC1__gen0001
     RDKit          3D

 51 53  0  0  0  0  0  0  0  0999 V2000
   -1.3614   -1.8317   -1.5995 C   0  0  0  0  0  0  0  0  0  0  0  0
   -1.0370   -0.5083   -1.1389 N   0  0  0  0  0  0  0  0  0  1  0  0
   -1.7773    0.2679   -0.2960 C   0  0  0  0  0  0  0  0  0  2  0  0
   -3.2781   -0.2979    0.3577 S   0  0  0  0  0  0  0  0  0 23  0  0
   -3.7999    1.1573    1.3522 C   0  0  0  0  0  0  0  0  0 24  0  0
   -3.6764    2.0336    0.7251 H   0  0  0  0  0  0  0  0  0 25  0  0
   -4.8526    0.9546    1.5444 H   0  0  0  0  0  0  0  0  0 26  0  0
   -3.0493    1.2618    2.6684 C   0  0  0  0  0  0  0  0  0 27  0  0
   -3.5309    0.8409    3.7091 O   0  0  0  0  0  0  0  0  0 28  0  0
   -1.8742    1.8992    2.5561 N   0  0  0  0  0  0  0  0  0 29  0  0
   -1.4992    2.0482    1.6240 H   0  0  0  0  0  0  0  0  0 30  0  0
   -0.9748    2.0290    3.6821 C   0  0  0  0  0  0  0  0  0 31  0  0
   -1.5116    1.6785    4.5659 H   0  0  0  0  0  0  0  0  0 32  0  0
   -0.7309    3.0930    3.8058 H   0  0  0  0  0  0  0  0  0 33  0  0
    0.3176    1.2462    3.4635 C   0  0  0  0  0  0  0  0  0 34  0  0
    0.0346   -0.2015    3.1699 C   0  0  0  0  0  0  0  0  0 35  0  0
    0.4545   -0.7656    1.9662 C   0  0  0  0  0  0  0  0  0 36  0  0
    1.0164   -0.1570    1.2682 H   0  0  0  0  0  0  0  0  0 45  0  0
    0.1770   -2.0870    1.6645 C   0  0  0  0  0  0  0  0  0 37  0  0
    0.5140   -2.5118    0.7251 H   0  0  0  0  0  0  0  0  0 44  0  0
   -0.5268   -2.8635    2.5662 C   0  0  0  0  0  0  0  0  0 38  0  0
   -0.7706   -3.8865    2.3221 H   0  0  0  0  0  0  0  0  0 43  0  0
   -0.9593   -2.3073    3.7632 C   0  0  0  0  0  0  0  0  0 39  0  0
   -1.4982   -2.9034    4.4781 H   0  0  0  0  0  0  0  0  0 42  0  0
   -0.6583   -0.9915    4.0680 C   0  0  0  0  0  0  0  0  0 40  0  0
   -1.0026   -0.5687    5.0036 H   0  0  0  0  0  0  0  0  0 41  0  0
    0.8767    1.6974    2.6301 H   0  0  0  0  0  0  0  0  0 46  0  0
    0.9250    1.3262    4.3720 H   0  0  0  0  0  0  0  0  0 47  0  0
   -1.1974    1.4160   -0.0721 N   0  0  0  0  0  0  0  0  0  3  0  0
   -0.0410    1.4000   -0.7723 N   0  0  0  0  0  0  0  0  0  4  0  0
    0.0639    0.2868   -1.3968 C   0  0  0  0  0  0  0  0  0  5  0  0
    1.1869   -0.1122   -2.2947 C   0  0  2  0  0  0  0  0  0  6  0  0
    1.3642   -1.1939   -2.1919 H   0  0  0  0  0  0  0  0  0 22  0  0
    2.4633    0.6288   -1.9026 C   0  0  0  0  0  0  0  0  0  7  0  0
    2.2758    1.6972   -1.9686 H   0  0  0  0  0  0  0  0  0 20  0  0
    2.7256    0.3956   -0.8710 H   0  0  0  0  0  0  0  0  0 21  0  0
    3.6032    0.2428   -2.8318 C   0  0  0  0  0  0  0  0  0  8  0  0
    4.5124    0.7906   -2.5539 H   0  0  0  0  0  0  0  0  0 18  0  0
    3.8286   -0.8214   -2.7313 H   0  0  0  0  0  0  0  0  0 19  0  0
    3.2460    0.5431   -4.2872 C   0  0  0  0  0  0  0  0  0  9  0  0
    4.0688    0.2425   -4.9504 H   0  0  0  0  0  0  0  0  0 16  0  0
    3.0976    1.6187   -4.4017 H   0  0  0  0  0  0  0  0  0 17  0  0
    1.9668   -0.1940   -4.6782 C   0  0  0  0  0  0  0  0  0 10  0  0
    2.1459   -1.2681   -4.6167 H   0  0  0  0  0  0  0  0  0 14  0  0
    1.7206    0.0499   -5.7177 H   0  0  0  0  0  0  0  0  0 15  0  0
    0.8196    0.2006   -3.7581 C   0  0  0  0  0  0  0  0  0 11  0  0
   -0.0829   -0.3425   -4.0420 H   0  0  0  0  0  0  0  0  0 12  0  0
    0.6260    1.2632   -3.8450 H   0  0  0  0  0  0  0  0  0 13  0  0
   -0.4480   -2.4146   -1.6976 H   0  0  0  0  0  0  0  0  0 48  0  0
   -1.8664   -1.7862   -2.5654 H   0  0  0  0  0  0  0  0  0 49  0  0
   -2.0261   -2.2950   -0.8701 H   0  0  0  0  0  0  0  0  0 50  0  0
  1  2  1  0
  2  3  4  0
  3  4  1  0
  4  5  1  0
  5  6  1  0
  5  7  1  0
  5  8  1  0
  8  9  2  0
  8 10  1  0
 10 11  1  0
 10 12  1  0
 12 13  1  0
 12 14  1  0
 12 15  1  0
 15 16  1  0
 16 17  4  0
 17 18  1  0
 17 19  4  0
 19 20  1  0
 19 21  4  0
 21 22  1  0
 21 23  4  0
 23 24  1  0
 23 25  4  0
 25 26  1  0
 15 27  1  0
 15 28  1  0
  3 29  4  0
 29 30  4  0
 30 31  4  0
 31 32  1  0
 32 33  1  6
 32 34  1  0
 34 35  1  0
 34 36  1  0
 34 37  1  0
 37 38  1  0
 37 39  1  0
 37 40  1  0
 40 41  1  0
 40 42  1  0
 40 43  1  0
 43 44  1  0
 43 45  1  0
 43 46  1  0
 46 47  1  0
 46 48  1  0
  1 49  1  0
  1 50  1  0
  1 51  1  0
 31  2  4  0
 46 32  1  0
 25 16  4  0
M  END
>  <sample_id>  (584)
train::Cn1c(SCC(=O)NCCc2ccccc2)nnc1C1CCCCC1__gen0001

>  <partition>  (584)
BAT_EXTERNAL_CONFIRM

>  <method>  (584)
BA_seed193

>  <candidate>  (584)
primary

$$$$
train::Cn1c(SCC(=O)NCCc2ccccc2)nnc1C1CCCCC1__gen0002
     RDKit          3D

 51 53  0  0  0  0  0  0  0  0999 V2000
   -0.9522    3.0194   -1.7268 C   0  0  0  0  0  0  0  0  0  0  0  0
   -1.0962    1.7668   -1.0836 N   0  0  0  0  0  0  0  0  0  1  0  0
   -1.7964    0.6677   -1.5033 C   0  0  0  0  0  0  0  0  0  2  0  0
   -2.6217    0.6313   -3.0249 S   0  0  0  0  0  0  0  0  0 23  0  0
   -3.5353   -0.9252   -2.8735 C   0  0  0  0  0  0  0  0  0 24  0  0
   -3.9183   -1.0105   -1.8599 H   0  0  0  0  0  0  0  0  0 25  0  0
   -4.3533   -0.8687   -3.5916 H   0  0  0  0  0  0  0  0  0 26  0  0
   -2.6749   -2.1421   -3.2461 C   0  0  0  0  0  0  0  0  0 27  0  0
   -2.7710   -2.7045   -4.3151 O   0  0  0  0  0  0  0  0  0 28  0  0
   -1.8713   -2.5593   -2.2409 N   0  0  0  0  0  0  0  0  0 29  0  0
   -1.7780   -1.9374   -1.4300 H   0  0  0  0  0  0  0  0  0 30  0  0
   -0.9065   -3.5895   -2.4069 C   0  0  0  0  0  0  0  0  0 31  0  0
   -1.0607   -4.0179   -3.3974 H   0  0  0  0  0  0  0  0  0 32  0  0
   -1.0723   -4.3727   -1.6640 H   0  0  0  0  0  0  0  0  0 33  0  0
    0.5430   -3.0646   -2.3092 C   0  0  0  0  0  0  0  0  0 34  0  0
    1.0123   -2.6837   -0.9240 C   0  0  0  0  0  0  0  0  0 35  0  0
    0.2402   -2.7875    0.2246 C   0  0  0  0  0  0  0  0  0 36  0  0
   -0.7872   -3.1106    0.1568 H   0  0  0  0  0  0  0  0  0 45  0  0
    0.7591   -2.4290    1.4590 C   0  0  0  0  0  0  0  0  0 37  0  0
    0.1214   -2.5078    2.3224 H   0  0  0  0  0  0  0  0  0 44  0  0
    2.0678   -1.9897    1.5698 C   0  0  0  0  0  0  0  0  0 38  0  0
    2.4729   -1.7431    2.5343 H   0  0  0  0  0  0  0  0  0 43  0  0
    2.8492   -1.8919    0.4327 C   0  0  0  0  0  0  0  0  0 39  0  0
    3.8688   -1.5574    0.5102 H   0  0  0  0  0  0  0  0  0 42  0  0
    2.3235   -2.2368   -0.8025 C   0  0  0  0  0  0  0  0  0 40  0  0
    2.9409   -2.1425   -1.6867 H   0  0  0  0  0  0  0  0  0 41  0  0
    1.2042   -3.8460   -2.6992 H   0  0  0  0  0  0  0  0  0 46  0  0
    0.6178   -2.2121   -2.9751 H   0  0  0  0  0  0  0  0  0 47  0  0
   -1.7275   -0.3027   -0.6296 N   0  0  0  0  0  0  0  0  0  3  0  0
   -0.9924    0.1381    0.4071 N   0  0  0  0  0  0  0  0  0  4  0  0
   -0.6015    1.3622    0.1545 C   0  0  0  0  0  0  0  0  0  5  0  0
    0.2290    2.1928    1.0667 C   0  0  2  0  0  0  0  0  0  6  0  0
    0.5177    3.1100    0.5527 H   0  0  0  0  0  0  0  0  0 22  0  0
    1.4885    1.4039    1.4509 C   0  0  0  0  0  0  0  0  0  7  0  0
    2.0685    1.1943    0.5496 H   0  0  0  0  0  0  0  0  0 20  0  0
    1.1825    0.4653    1.8959 H   0  0  0  0  0  0  0  0  0 21  0  0
    2.3435    2.2030    2.4202 C   0  0  0  0  0  0  0  0  0  8  0  0
    2.6614    3.1343    1.9523 H   0  0  0  0  0  0  0  0  0 18  0  0
    3.2333    1.6424    2.6967 H   0  0  0  0  0  0  0  0  0 19  0  0
    1.5405    2.5480    3.6633 C   0  0  0  0  0  0  0  0  0  9  0  0
    2.1499    3.1254    4.3767 H   0  0  0  0  0  0  0  0  0 16  0  0
    1.2553    1.6284    4.1837 H   0  0  0  0  0  0  0  0  0 17  0  0
    0.2780    3.3298    3.2959 C   0  0  0  0  0  0  0  0  0 10  0  0
    0.5498    4.2764    2.8563 H   0  0  0  0  0  0  0  0  0 14  0  0
   -0.3078    3.5461    4.2085 H   0  0  0  0  0  0  0  0  0 15  0  0
   -0.5720    2.5333    2.3227 C   0  0  0  0  0  0  0  0  0 11  0  0
   -0.8950    1.5949    2.7894 H   0  0  0  0  0  0  0  0  0 12  0  0
   -1.4673    3.0958    2.0417 H   0  0  0  0  0  0  0  0  0 13  0  0
   -1.5288    3.7928   -1.2120 H   0  0  0  0  0  0  0  0  0 48  0  0
    0.0980    3.3134   -1.7548 H   0  0  0  0  0  0  0  0  0 49  0  0
   -1.3294    2.9173   -2.7375 H   0  0  0  0  0  0  0  0  0 50  0  0
  1  2  1  0
  2  3  4  0
  3  4  1  0
  4  5  1  0
  5  6  1  0
  5  7  1  0
  5  8  1  0
  8  9  2  0
  8 10  1  0
 10 11  1  0
 10 12  1  0
 12 13  1  0
 12 14  1  0
 12 15  1  0
 15 16  1  0
 16 17  4  0
 17 18  1  0
 17 19  4  0
 19 20  1  0
 19 21  4  0
 21 22  1  0
 21 23  4  0
 23 24  1  0
 23 25  4  0
 25 26  1  0
 15 27  1  0
 15 28  1  0
  3 29  4  0
 29 30  4  0
 30 31  4  0
 31 32  1  0
 32 33  1  6
 32 34  1  0
 34 35  1  0
 34 36  1  0
 34 37  1  0
 37 38  1  0
 37 39  1  0
 37 40  1  0
 40 41  1  0
 40 42  1  0
 40 43  1  0
 43 44  1  0
 43 45  1  0
 43 46  1  0
 46 47  1  0
 46 48  1  0
  1 49  1  0
  1 50  1  0
  1 51  1  0
 31  2  4  0
 46 32  1  0
 25 16  4  0
M  END
>  <sample_id>  (585)
train::Cn1c(SCC(=O)NCCc2ccccc2)nnc1C1CCCCC1__gen0002

>  <partition>  (585)
BAT_EXTERNAL_CONFIRM

>  <method>  (585)
BA_seed193

>  <candidate>  (585)
primary

$$$$
train::Cc1sc2ncnc(NCC(c3ccccc3)N(C)C)c2c1C__gen0000
     RDKit          3D

 45 47  0  0  0  0  0  0  0  0999 V2000
    1.8873   -1.5515    4.5072 C   0  0  0  0  0  0  0  0  0  0  0  0
    1.3541   -1.8835    3.1543 C   0  0  0  0  0  0  0  0  0  1  0  0
    0.3681   -1.2341    2.4581 C   0  0  0  0  0  0  0  0  0  2  0  0
   -0.3740   -0.0638    3.0090 C   0  0  0  0  0  0  0  0  0 38  0  0
   -1.4484   -0.2582    3.0220 H   0  0  0  0  0  0  0  0  0 39  0  0
   -0.0642    0.1386    4.0309 H   0  0  0  0  0  0  0  0  0 40  0  0
   -0.1913    0.8276    2.4146 H   0  0  0  0  0  0  0  0  0 41  0  0
    0.1287   -1.8395    1.1849 C   0  0  0  0  0  0  0  0  0  3  0  0
    0.9319   -2.9565    0.9521 C   0  0  0  0  0  0  0  0  0  4  0  0
    0.9081   -3.7292   -0.1355 N   0  0  0  0  0  0  0  0  0  5  0  0
    0.0197   -3.3470   -1.0390 C   0  0  0  0  0  0  0  0  0  6  0  0
   -0.0463   -3.9678   -1.9300 H   0  0  0  0  0  0  0  0  0 36  0  0
   -0.7794   -2.3033   -0.9666 N   0  0  0  0  0  0  0  0  0  7  0  0
   -0.7425   -1.5288    0.1010 C   0  0  0  0  0  0  0  0  0  8  0  0
   -1.5643   -0.4648    0.1309 N   0  0  0  0  0  0  0  0  0  9  0  0
   -1.3917    0.2223    0.8579 H   0  0  0  0  0  0  0  0  0 10  0  0
   -2.1733    0.1035   -1.0520 C   0  0  0  0  0  0  0  0  0 11  0  0
   -2.5070   -0.7299   -1.6642 H   0  0  0  0  0  0  0  0  0 12  0  0
   -3.0310    0.7009   -0.7255 H   0  0  0  0  0  0  0  0  0 13  0  0
   -1.1909    1.0132   -1.8616 C   0  0  2  0  0  0  0  0  0 14  0  0
   -0.4354    0.3047   -2.8805 N   0  0  0  0  0  0  0  0  0 15  0  0
    0.3457    1.2401   -3.6577 C   0  0  0  0  0  0  0  0  0 16  0  0
   -0.2682    1.8950   -4.2883 H   0  0  0  0  0  0  0  0  0 17  0  0
    0.9657    1.8584   -3.0151 H   0  0  0  0  0  0  0  0  0 18  0  0
    0.9954    0.6791   -4.3246 H   0  0  0  0  0  0  0  0  0 19  0  0
   -1.2352   -0.5483   -3.7300 C   0  0  0  0  0  0  0  0  0 20  0  0
   -1.4380   -1.4779   -3.2033 H   0  0  0  0  0  0  0  0  0 21  0  0
   -0.6252   -0.8242   -4.5955 H   0  0  0  0  0  0  0  0  0 22  0  0
   -2.1664   -0.0863   -4.0739 H   0  0  0  0  0  0  0  0  0 23  0  0
   -0.2725    1.6755   -0.8816 C   0  0  0  0  0  0  0  0  0 24  0  0
   -0.6195    2.8737   -0.2593 C   0  0  0  0  0  0  0  0  0 25  0  0
   -1.5433    3.3621   -0.5424 H   0  0  0  0  0  0  0  0  0 34  0  0
    0.1843    3.4268    0.7218 C   0  0  0  0  0  0  0  0  0 26  0  0
   -0.1020    4.3565    1.1771 H   0  0  0  0  0  0  0  0  0 33  0  0
    1.3581    2.8002    1.0942 C   0  0  0  0  0  0  0  0  0 27  0  0
    1.9843    3.2362    1.8586 H   0  0  0  0  0  0  0  0  0 32  0  0
    1.7329    1.6188    0.4710 C   0  0  0  0  0  0  0  0  0 28  0  0
    2.6432    1.1178    0.7514 H   0  0  0  0  0  0  0  0  0 31  0  0
    0.9314    1.0700   -0.5162 C   0  0  0  0  0  0  0  0  0 29  0  0
    1.2124    0.1413   -0.9967 H   0  0  0  0  0  0  0  0  0 30  0  0
   -1.8154    1.7882   -2.3457 H   0  0  0  0  0  0  0  0  0 35  0  0
    2.0094   -3.2423    2.2715 S   0  0  0  0  0  0  0  0  0 37  0  0
    2.2672   -0.5364    4.5178 H   0  0  0  0  0  0  0  0  0 42  0  0
    1.1036   -1.6467    5.2457 H   0  0  0  0  0  0  0  0  0 43  0  0
    2.6937   -2.2306    4.7534 H   0  0  0  0  0  0  0  0  0 44  0  0
  1  2  1  0
  2  3  4  0
  3  4  1  0
  4  5  1  0
  4  6  1  0
  4  7  1  0
  3  8  4  0
  8  9  4  0
  9 10  4  0
 10 11  4  0
 11 12  1  0
 11 13  4  0
 13 14  4  0
 14 15  1  0
 15 16  1  0
 15 17  1  0
 17 18  1  0
 17 19  1  0
 17 20  1  0
 20 21  1  0
 21 22  1  0
 22 23  1  0
 22 24  1  0
 22 25  1  0
 21 26  1  0
 26 27  1  0
 26 28  1  0
 26 29  1  0
 20 30  1  0
 30 31  4  0
 31 32  1  0
 31 33  4  0
 33 34  1  0
 33 35  4  0
 35 36  1  0
 35 37  4  0
 37 38  1  0
 37 39  4  0
 39 40  1  0
 20 41  1  6
  9 42  4  0
  1 43  1  0
  1 44  1  0
  1 45  1  0
 42  2  4  0
 14  8  4  0
 39 30  4  0
M  END
>  <sample_id>  (586)
train::Cc1sc2ncnc(NCC(c3ccccc3)N(C)C)c2c1C__gen0000

>  <partition>  (586)
BAT_EXTERNAL_CONFIRM

>  <method>  (586)
BA_seed193

>  <candidate>  (586)
primary

$$$$
train::Cc1sc2ncnc(NCC(c3ccccc3)N(C)C)c2c1C__gen0001
     RDKit          3D

 45 47  0  0  0  0  0  0  0  0999 V2000
    3.0036    0.4051   -4.2939 C   0  0  0  0  0  0  0  0  0  0  0  0
    2.9836    0.5467   -2.8254 C   0  0  0  0  0  0  0  0  0  1  0  0
    1.8987    0.8092   -2.0409 C   0  0  0  0  0  0  0  0  0  2  0  0
    0.5441    1.0188   -2.6594 C   0  0  0  0  0  0  0  0  0 38  0  0
    0.6427    1.6440   -3.5342 H   0  0  0  0  0  0  0  0  0 39  0  0
    0.1042    0.0644   -2.9348 H   0  0  0  0  0  0  0  0  0 40  0  0
   -0.1403    1.5272   -1.9832 H   0  0  0  0  0  0  0  0  0 41  0  0
    2.2366    0.8980   -0.6487 C   0  0  0  0  0  0  0  0  0  3  0  0
    3.6217    0.7170   -0.4306 C   0  0  0  0  0  0  0  0  0  4  0  0
    4.2421    0.7590    0.7470 N   0  0  0  0  0  0  0  0  0  5  0  0
    3.4576    1.0116    1.7747 C   0  0  0  0  0  0  0  0  0  6  0  0
    3.9201    1.0691    2.7543 H   0  0  0  0  0  0  0  0  0 36  0  0
    2.1437    1.1618    1.7351 N   0  0  0  0  0  0  0  0  0  7  0  0
    1.5059    1.1024    0.5593 C   0  0  0  0  0  0  0  0  0  8  0  0
    0.1854    1.2733    0.5874 N   0  0  0  0  0  0  0  0  0  9  0  0
   -0.3107    1.0152   -0.2505 H   0  0  0  0  0  0  0  0  0 10  0  0
   -0.6191    1.2325    1.7824 C   0  0  0  0  0  0  0  0  0 11  0  0
    0.0356    1.4288    2.6389 H   0  0  0  0  0  0  0  0  0 12  0  0
   -1.3803    2.0061    1.7195 H   0  0  0  0  0  0  0  0  0 13  0  0
   -1.3269   -0.1489    1.9496 C   0  0  2  0  0  0  0  0  0 14  0  0
   -0.3987   -1.2747    2.0401 N   0  0  0  0  0  0  0  0  0 15  0  0
    0.5045   -1.1753    3.1785 C   0  0  0  0  0  0  0  0  0 16  0  0
    1.2065   -1.9974    3.1138 H   0  0  0  0  0  0  0  0  0 17  0  0
    1.0725   -0.2448    3.1380 H   0  0  0  0  0  0  0  0  0 18  0  0
   -0.0206   -1.2526    4.1330 H   0  0  0  0  0  0  0  0  0 19  0  0
   -1.1049   -2.5279    2.1067 C   0  0  0  0  0  0  0  0  0 20  0  0
   -0.3776   -3.3372    2.2397 H   0  0  0  0  0  0  0  0  0 21  0  0
   -1.8417   -2.5587    2.9284 H   0  0  0  0  0  0  0  0  0 22  0  0
   -1.6379   -2.7256    1.1740 H   0  0  0  0  0  0  0  0  0 23  0  0
   -2.2652   -0.2922    0.7694 C   0  0  0  0  0  0  0  0  0 24  0  0
   -1.8410   -0.8663   -0.4239 C   0  0  0  0  0  0  0  0  0 25  0  0
   -0.8417   -1.2747   -0.4813 H   0  0  0  0  0  0  0  0  0 34  0  0
   -2.6877   -0.9242   -1.5192 C   0  0  0  0  0  0  0  0  0 26  0  0
   -2.3458   -1.3993   -2.4215 H   0  0  0  0  0  0  0  0  0 33  0  0
   -3.9609   -0.4003   -1.4441 C   0  0  0  0  0  0  0  0  0 27  0  0
   -4.6210   -0.4394   -2.2900 H   0  0  0  0  0  0  0  0  0 32  0  0
   -4.3855    0.1901   -0.2642 C   0  0  0  0  0  0  0  0  0 28  0  0
   -5.3753    0.6200   -0.2007 H   0  0  0  0  0  0  0  0  0 31  0  0
   -3.5404    0.2468    0.8348 C   0  0  0  0  0  0  0  0  0 29  0  0
   -3.8837    0.7086    1.7553 H   0  0  0  0  0  0  0  0  0 30  0  0
   -1.9202   -0.0834    2.8793 H   0  0  0  0  0  0  0  0  0 35  0  0
    4.4691    0.4112   -1.8989 S   0  0  0  0  0  0  0  0  0 37  0  0
    4.0044    0.1306   -4.6141 H   0  0  0  0  0  0  0  0  0 42  0  0
    2.7200    1.3236   -4.7777 H   0  0  0  0  0  0  0  0  0 43  0  0
    2.3246   -0.3983   -4.6020 H   0  0  0  0  0  0  0  0  0 44  0  0
  1  2  1  0
  2  3  4  0
  3  4  1  0
  4  5  1  0
  4  6  1  0
  4  7  1  0
  3  8  4  0
  8  9  4  0
  9 10  4  0
 10 11  4  0
 11 12  1  0
 11 13  4  0
 13 14  4  0
 14 15  1  0
 15 16  1  0
 15 17  1  0
 17 18  1  0
 17 19  1  0
 17 20  1  0
 20 21  1  0
 21 22  1  0
 22 23  1  0
 22 24  1  0
 22 25  1  0
 21 26  1  0
 26 27  1  0
 26 28  1  0
 26 29  1  0
 20 30  1  0
 30 31  4  0
 31 32  1  0
 31 33  4  0
 33 34  1  0
 33 35  4  0
 35 36  1  0
 35 37  4  0
 37 38  1  0
 37 39  4  0
 39 40  1  0
 20 41  1  1
  9 42  4  0
  1 43  1  0
  1 44  1  0
  1 45  1  0
 42  2  4  0
 14  8  4  0
 39 30  4  0
M  END
>  <sample_id>  (587)
train::Cc1sc2ncnc(NCC(c3ccccc3)N(C)C)c2c1C__gen0001

>  <partition>  (587)
BAT_EXTERNAL_CONFIRM

>  <method>  (587)
BA_seed193

>  <candidate>  (587)
primary

$$$$
train::Cc1sc2ncnc(NCC(c3ccccc3)N(C)C)c2c1C__gen0002
     RDKit          3D

 45 47  0  0  0  0  0  0  0  0999 V2000
    4.6528   -2.7668    0.0646 C   0  0  0  0  0  0  0  0  0  0  0  0
    3.6219   -1.9003   -0.5857 C   0  0  0  0  0  0  0  0  0  1  0  0
    2.2630   -1.9686   -0.4399 C   0  0  0  0  0  0  0  0  0  2  0  0
    1.5941   -2.9607    0.4606 C   0  0  0  0  0  0  0  0  0 38  0  0
    0.8363   -3.5171   -0.0909 H   0  0  0  0  0  0  0  0  0 39  0  0
    1.1203   -2.4528    1.2961 H   0  0  0  0  0  0  0  0  0 40  0  0
    2.3177   -3.6563    0.8637 H   0  0  0  0  0  0  0  0  0 41  0  0
    1.6089   -0.9644   -1.2112 C   0  0  0  0  0  0  0  0  0  3  0  0
    2.5097   -0.1833   -1.9449 C   0  0  0  0  0  0  0  0  0  4  0  0
    2.1493    0.8119   -2.7627 N   0  0  0  0  0  0  0  0  0  5  0  0
    0.8556    1.0263   -2.8423 C   0  0  0  0  0  0  0  0  0  6  0  0
    0.5347    1.8182   -3.5067 H   0  0  0  0  0  0  0  0  0 36  0  0
   -0.0954    0.3923   -2.2003 N   0  0  0  0  0  0  0  0  0  7  0  0
    0.2389   -0.6026   -1.3575 C   0  0  0  0  0  0  0  0  0  8  0  0
   -0.7809   -1.2075   -0.7053 N   0  0  0  0  0  0  0  0  0  9  0  0
   -0.5103   -1.8556    0.0226 H   0  0  0  0  0  0  0  0  0 10  0  0
   -2.0163   -0.5350   -0.4971 C   0  0  0  0  0  0  0  0  0 11  0  0
   -2.8378   -1.2638   -0.4485 H   0  0  0  0  0  0  0  0  0 12  0  0
   -2.1797    0.1232   -1.3548 H   0  0  0  0  0  0  0  0  0 13  0  0
   -1.9812    0.2854    0.8218 C   0  0  2  0  0  0  0  0  0 14  0  0
   -3.2422    0.8862    1.2512 N   0  0  0  0  0  0  0  0  0 15  0  0
   -3.9718    1.6971    0.3204 C   0  0  0  0  0  0  0  0  0 16  0  0
   -3.4251    2.6062    0.0818 H   0  0  0  0  0  0  0  0  0 17  0  0
   -4.2030    1.1729   -0.6152 H   0  0  0  0  0  0  0  0  0 18  0  0
   -4.8932    2.0161    0.8095 H   0  0  0  0  0  0  0  0  0 19  0  0
   -4.0834   -0.0715    1.9281 C   0  0  0  0  0  0  0  0  0 20  0  0
   -4.5679   -0.7754    1.2483 H   0  0  0  0  0  0  0  0  0 21  0  0
   -3.4952   -0.6388    2.6565 H   0  0  0  0  0  0  0  0  0 22  0  0
   -4.8624    0.4747    2.4600 H   0  0  0  0  0  0  0  0  0 23  0  0
   -0.8204    1.2609    0.7016 C   0  0  0  0  0  0  0  0  0 24  0  0
    0.3794    0.9358    1.3352 C   0  0  0  0  0  0  0  0  0 25  0  0
    0.4199    0.0493    1.9541 H   0  0  0  0  0  0  0  0  0 34  0  0
    1.5082    1.7208    1.1895 C   0  0  0  0  0  0  0  0  0 26  0  0
    2.4280    1.4357    1.6759 H   0  0  0  0  0  0  0  0  0 33  0  0
    1.4678    2.8519    0.3979 C   0  0  0  0  0  0  0  0  0 27  0  0
    2.3494    3.4516    0.2608 H   0  0  0  0  0  0  0  0  0 32  0  0
    0.2851    3.1932   -0.2324 C   0  0  0  0  0  0  0  0  0 28  0  0
    0.2448    4.0610   -0.8734 H   0  0  0  0  0  0  0  0  0 31  0  0
   -0.8451    2.4007   -0.1026 C   0  0  0  0  0  0  0  0  0 29  0  0
   -1.7383    2.6737   -0.6440 H   0  0  0  0  0  0  0  0  0 30  0  0
   -1.7246   -0.3948    1.6472 H   0  0  0  0  0  0  0  0  0 35  0  0
    4.1369   -0.6453   -1.6805 S   0  0  0  0  0  0  0  0  0 37  0  0
    4.4902   -3.8154   -0.2058 H   0  0  0  0  0  0  0  0  0 42  0  0
    5.6484   -2.4883   -0.2926 H   0  0  0  0  0  0  0  0  0 43  0  0
    4.6130   -2.6808    1.1465 H   0  0  0  0  0  0  0  0  0 44  0  0
  1  2  1  0
  2  3  4  0
  3  4  1  0
  4  5  1  0
  4  6  1  0
  4  7  1  0
  3  8  4  0
  8  9  4  0
  9 10  4  0
 10 11  4  0
 11 12  1  0
 11 13  4  0
 13 14  4  0
 14 15  1  0
 15 16  1  0
 15 17  1  0
 17 18  1  0
 17 19  1  0
 17 20  1  0
 20 21  1  0
 21 22  1  0
 22 23  1  0
 22 24  1  0
 22 25  1  0
 21 26  1  0
 26 27  1  0
 26 28  1  0
 26 29  1  0
 20 30  1  0
 30 31  4  0
 31 32  1  0
 31 33  4  0
 33 34  1  0
 33 35  4  0
 35 36  1  0
 35 37  4  0
 37 38  1  0
 37 39  4  0
 39 40  1  0
 20 41  1  1
  9 42  4  0
  1 43  1  0
  1 44  1  0
  1 45  1  0
 42  2  4  0
 14  8  4  0
 39 30  4  0
M  END
>  <sample_id>  (588)
train::Cc1sc2ncnc(NCC(c3ccccc3)N(C)C)c2c1C__gen0002

>  <partition>  (588)
BAT_EXTERNAL_CONFIRM

>  <method>  (588)
BA_seed193

>  <candidate>  (588)
primary

$$$$
train::COc1ccc(Cl)cc1N(CC(=O)Nc1ccccc1SC)S(C)(=O)=O__gen0000
     RDKit          3D

 45 46  0  0  0  0  0  0  0  0999 V2000
    3.3841   -0.2648    0.6878 C   0  0  0  0  0  0  0  0  0  0  0  0
    4.1887   -0.3582   -0.0459 H   0  0  0  0  0  0  0  0  0  1  0  0
    3.7869    0.2348    1.5809 H   0  0  0  0  0  0  0  0  0  2  0  0
    2.9881   -1.2432    0.9480 H   0  0  0  0  0  0  0  0  0  3  0  0
    2.2843    0.4471    0.1639 O   0  0  0  0  0  0  0  0  0  4  0  0
    2.4170    1.7568   -0.1171 C   0  0  0  0  0  0  0  0  0  5  0  0
    3.6153    2.4526   -0.2190 C   0  0  0  0  0  0  0  0  0  6  0  0
    4.5533    1.9667   -0.0066 H   0  0  0  0  0  0  0  0  0 44  0  0
    3.6132    3.7774   -0.6069 C   0  0  0  0  0  0  0  0  0  7  0  0
    4.5364    4.3267   -0.6757 H   0  0  0  0  0  0  0  0  0 43  0  0
    2.4137    4.4208   -0.8836 C   0  0  0  0  0  0  0  0  0  8  0  0
    2.4048    6.0834   -1.3627 Cl  0  0  0  0  0  0  0  0  0 42  0  0
    1.2145    3.7447   -0.7817 C   0  0  0  0  0  0  0  0  0  9  0  0
    0.2885    4.2388   -0.9964 H   0  0  0  0  0  0  0  0  0 41  0  0
    1.2071    2.4141   -0.4074 C   0  0  0  0  0  0  0  0  0 10  0  0
    0.0285    1.6840   -0.2399 N   0  0  0  0  0  0  0  0  0 11  0  0
   -0.5200    1.5849    1.3413 S   0  0  2  0  0  6  0  0  0 12  0  0
    0.4759    2.1502    2.1932 O   0  0  0  0  0  0  0  0  0 13  0  0
   -0.9626    0.2425    1.5719 O   0  0  0  0  0  0  0  0  0 14  0  0
   -1.9947    2.6375    1.4080 C   0  0  0  0  0  0  0  0  0 15  0  0
   -2.4400    2.4813    2.3806 H   0  0  0  0  0  0  0  0  0 16  0  0
   -2.6854    2.3394    0.6318 H   0  0  0  0  0  0  0  0  0 17  0  0
   -1.6850    3.6677    1.2991 H   0  0  0  0  0  0  0  0  0 18  0  0
   -0.9031    1.5137   -1.3222 C   0  0  0  0  0  0  0  0  0 19  0  0
   -1.8885    0.3739   -1.0583 C   0  0  0  0  0  0  0  0  0 20  0  0
   -3.0811    0.5980   -1.1338 O   0  0  0  0  0  0  0  0  0 21  0  0
   -1.3231   -0.8019   -0.8414 N   0  0  0  0  0  0  0  0  0 22  0  0
   -1.9528   -1.9947   -0.5244 C   0  0  0  0  0  0  0  0  0 23  0  0
   -3.2522   -2.2777   -0.9590 C   0  0  0  0  0  0  0  0  0 24  0  0
   -3.7759   -1.5388   -1.5534 H   0  0  0  0  0  0  0  0  0 37  0  0
   -3.8623   -3.4863   -0.6591 C   0  0  0  0  0  0  0  0  0 25  0  0
   -4.8630   -3.6783   -1.0039 H   0  0  0  0  0  0  0  0  0 36  0  0
   -3.1907   -4.4230    0.1008 C   0  0  0  0  0  0  0  0  0 26  0  0
   -3.6627   -5.3617    0.3541 H   0  0  0  0  0  0  0  0  0 35  0  0
   -1.9061   -4.1661    0.5429 C   0  0  0  0  0  0  0  0  0 27  0  0
   -1.3905   -4.8939    1.1495 H   0  0  0  0  0  0  0  0  0 34  0  0
   -1.2890   -2.9668    0.2319 C   0  0  0  0  0  0  0  0  0 28  0  0
    0.3620   -2.6228    0.8289 S   0  0  0  0  0  0  0  0  0 29  0  0
    1.1325   -4.2596    0.5984 C   0  0  0  0  0  0  0  0  0 30  0  0
    2.2045   -4.1070    0.6332 H   0  0  0  0  0  0  0  0  0 31  0  0
    0.8411   -4.9245    1.4048 H   0  0  0  0  0  0  0  0  0 32  0  0
    0.8578   -4.6597   -0.3715 H   0  0  0  0  0  0  0  0  0 33  0  0
   -0.3431   -0.8069   -0.5439 H   0  0  0  0  0  0  0  0  0 38  0  0
   -1.4980    2.4119   -1.5187 H   0  0  0  0  0  0  0  0  0 39  0  0
   -0.3282    1.2870   -2.2185 H   0  0  0  0  0  0  0  0  0 40  0  0
  1  2  1  0
  1  3  1  0
  1  4  1  0
  1  5  1  0
  5  6  1  0
  6  7  4  0
  7  8  1  0
  7  9  4  0
  9 10  1  0
  9 11  4  0
 11 12  1  0
 11 13  4  0
 13 14  1  0
 13 15  4  0
 15 16  1  0
 17 16  1  6
 17 18  2  0
 17 19  2  0
 17 20  1  0
 20 21  1  0
 20 22  1  0
 20 23  1  0
 16 24  1  0
 24 25  1  0
 25 26  2  0
 25 27  1  0
 27 28  1  0
 28 29  4  0
 29 30  1  0
 29 31  4  0
 31 32  1  0
 31 33  4  0
 33 34  1  0
 33 35  4  0
 35 36  1  0
 35 37  4  0
 37 38  1  0
 38 39  1  0
 39 40  1  0
 39 41  1  0
 39 42  1  0
 27 43  1  0
 24 44  1  0
 24 45  1  0
 15  6  4  0
 37 28  4  0
M  END
>  <sample_id>  (589)
train::COc1ccc(Cl)cc1N(CC(=O)Nc1ccccc1SC)S(C)(=O)=O__gen0000

>  <partition>  (589)
BAT_EXTERNAL_CONFIRM

>  <method>  (589)
BA_seed193

>  <candidate>  (589)
primary

$$$$
train::COc1ccc(Cl)cc1N(CC(=O)Nc1ccccc1SC)S(C)(=O)=O__gen0001
     RDKit          3D

 45 46  0  0  0  0  0  0  0  0999 V2000
    3.4286    0.0717   -0.0132 C   0  0  0  0  0  0  0  0  0  0  0  0
    4.3778   -0.1048    0.5121 H   0  0  0  0  0  0  0  0  0  1  0  0
    3.1829    1.1372   -0.0038 H   0  0  0  0  0  0  0  0  0  2  0  0
    3.4975   -0.2628   -1.0427 H   0  0  0  0  0  0  0  0  0  3  0  0
    2.3995   -0.6846    0.5938 O   0  0  0  0  0  0  0  0  0  4  0  0
    2.1407   -0.4102    1.9170 C   0  0  0  0  0  0  0  0  0  5  0  0
    3.0416   -0.8061    2.8973 C   0  0  0  0  0  0  0  0  0  6  0  0
    3.9277   -1.3245    2.5920 H   0  0  0  0  0  0  0  0  0 44  0  0
    2.8078   -0.5667    4.2347 C   0  0  0  0  0  0  0  0  0  7  0  0
    3.5105   -0.8843    4.9824 H   0  0  0  0  0  0  0  0  0 43  0  0
    1.6438    0.0769    4.6129 C   0  0  0  0  0  0  0  0  0  8  0  0
    1.3372    0.4007    6.2762 Cl  0  0  0  0  0  0  0  0  0 42  0  0
    0.7309    0.4901    3.6704 C   0  0  0  0  0  0  0  0  0  9  0  0
   -0.1705    0.9841    3.9737 H   0  0  0  0  0  0  0  0  0 41  0  0
    0.9646    0.2522    2.3189 C   0  0  0  0  0  0  0  0  0 10  0  0
    0.0355    0.6366    1.3395 N   0  0  0  0  0  0  0  0  0 11  0  0
    0.4814    1.8533    0.2642 S   0  0  2  0  0  6  0  0  0 12  0  0
    0.3580    1.2740   -1.0489 O   0  0  0  0  0  0  0  0  0 13  0  0
    1.7478    2.3883    0.6755 O   0  0  0  0  0  0  0  0  0 14  0  0
   -0.7158    3.2166    0.3995 C   0  0  0  0  0  0  0  0  0 15  0  0
   -0.3602    3.9895   -0.2716 H   0  0  0  0  0  0  0  0  0 16  0  0
   -1.7000    2.8790    0.1017 H   0  0  0  0  0  0  0  0  0 17  0  0
   -0.6949    3.5565    1.4267 H   0  0  0  0  0  0  0  0  0 18  0  0
   -1.3794    0.5016    1.6254 C   0  0  0  0  0  0  0  0  0 19  0  0
   -2.1823    0.4476    0.3205 C   0  0  0  0  0  0  0  0  0 20  0  0
   -3.0719    1.2463    0.1046 O   0  0  0  0  0  0  0  0  0 21  0  0
   -1.8178   -0.5659   -0.4696 N   0  0  0  0  0  0  0  0  0 22  0  0
   -2.2263   -0.8402   -1.7735 C   0  0  0  0  0  0  0  0  0 23  0  0
   -3.3254   -0.2275   -2.3726 C   0  0  0  0  0  0  0  0  0 24  0  0
   -3.8912    0.5109   -1.8182 H   0  0  0  0  0  0  0  0  0 37  0  0
   -3.6836   -0.5528   -3.6724 C   0  0  0  0  0  0  0  0  0 25  0  0
   -4.5285   -0.0632   -4.1317 H   0  0  0  0  0  0  0  0  0 36  0  0
   -2.9638   -1.5063   -4.3804 C   0  0  0  0  0  0  0  0  0 26  0  0
   -3.2514   -1.7559   -5.3992 H   0  0  0  0  0  0  0  0  0 35  0  0
   -1.8915   -2.1386   -3.7894 C   0  0  0  0  0  0  0  0  0 27  0  0
   -1.3287   -2.8866   -4.3237 H   0  0  0  0  0  0  0  0  0 34  0  0
   -1.5273   -1.7962   -2.5084 C   0  0  0  0  0  0  0  0  0 28  0  0
   -0.1256   -2.6047   -1.7371 S   0  0  0  0  0  0  0  0  0 29  0  0
    1.1871   -1.5723   -2.4750 C   0  0  0  0  0  0  0  0  0 30  0  0
    2.1230   -1.9355   -2.0829 H   0  0  0  0  0  0  0  0  0 31  0  0
    1.0248   -0.5398   -2.1893 H   0  0  0  0  0  0  0  0  0 32  0  0
    1.1503   -1.6839   -3.5568 H   0  0  0  0  0  0  0  0  0 33  0  0
   -0.9854   -1.0878   -0.1897 H   0  0  0  0  0  0  0  0  0 38  0  0
   -1.5007   -0.4310    2.1701 H   0  0  0  0  0  0  0  0  0 39  0  0
   -1.7769    1.3192    2.2409 H   0  0  0  0  0  0  0  0  0 40  0  0
  1  2  1  0
  1  3  1  0
  1  4  1  0
  1  5  1  0
  5  6  1  0
  6  7  4  0
  7  8  1  0
  7  9  4  0
  9 10  1  0
  9 11  4  0
 11 12  1  0
 11 13  4  0
 13 14  1  0
 13 15  4  0
 15 16  1  0
 17 16  1  1
 17 18  2  0
 17 19  2  0
 17 20  1  0
 20 21  1  0
 20 22  1  0
 20 23  1  0
 16 24  1  0
 24 25  1  0
 25 26  2  0
 25 27  1  0
 27 28  1  0
 28 29  4  0
 29 30  1  0
 29 31  4  0
 31 32  1  0
 31 33  4  0
 33 34  1  0
 33 35  4  0
 35 36  1  0
 35 37  4  0
 37 38  1  0
 38 39  1  0
 39 40  1  0
 39 41  1  0
 39 42  1  0
 27 43  1  0
 24 44  1  0
 24 45  1  0
 15  6  4  0
 37 28  4  0
M  END
>  <sample_id>  (590)
train::COc1ccc(Cl)cc1N(CC(=O)Nc1ccccc1SC)S(C)(=O)=O__gen0001

>  <partition>  (590)
BAT_EXTERNAL_CONFIRM

>  <method>  (590)
BA_seed193

>  <candidate>  (590)
primary

$$$$
train::COc1ccc(Cl)cc1N(CC(=O)Nc1ccccc1SC)S(C)(=O)=O__gen0002
     RDKit          3D

 45 46  0  0  0  0  0  0  0  0999 V2000
    1.2173   -3.7321    3.1113 C   0  0  0  0  0  0  0  0  0  0  0  0
    2.2832   -3.8467    2.9132 H   0  0  0  0  0  0  0  0  0  1  0  0
    0.6811   -4.6261    2.8064 H   0  0  0  0  0  0  0  0  0  2  0  0
    1.0600   -3.5739    4.1901 H   0  0  0  0  0  0  0  0  0  3  0  0
    0.6520   -2.6681    2.3716 O   0  0  0  0  0  0  0  0  0  4  0  0
    1.1301   -1.4155    2.5499 C   0  0  0  0  0  0  0  0  0  5  0  0
    2.1262   -1.0760    3.4591 C   0  0  0  0  0  0  0  0  0  6  0  0
    2.5994   -1.8434    4.0582 H   0  0  0  0  0  0  0  0  0 44  0  0
    2.5291    0.2400    3.6190 C   0  0  0  0  0  0  0  0  0  7  0  0
    3.2990    0.4849    4.3431 H   0  0  0  0  0  0  0  0  0 43  0  0
    1.9388    1.2287    2.8554 C   0  0  0  0  0  0  0  0  0  8  0  0
    2.4261    2.8689    3.0689 Cl  0  0  0  0  0  0  0  0  0 42  0  0
    0.9469    0.9267    1.9418 C   0  0  0  0  0  0  0  0  0  9  0  0
    0.4891    1.7049    1.3420 H   0  0  0  0  0  0  0  0  0 41  0  0
    0.5498   -0.3913    1.7746 C   0  0  0  0  0  0  0  0  0 10  0  0
   -0.4613   -0.6719    0.8632 N   0  0  0  0  0  0  0  0  0 11  0  0
   -1.9993   -0.1286    1.2194 S   0  0  2  0  0  6  0  0  0 12  0  0
   -2.7758   -0.1139    0.0162 O   0  0  0  0  0  0  0  0  0 13  0  0
   -1.8750    1.0912    1.9357 O   0  0  0  0  0  0  0  0  0 14  0  0
   -2.6729   -1.3811    2.3278 C   0  0  0  0  0  0  0  0  0 15  0  0
   -3.6524   -1.0480    2.6349 H   0  0  0  0  0  0  0  0  0 16  0  0
   -2.0025   -1.4573    3.1749 H   0  0  0  0  0  0  0  0  0 17  0  0
   -2.7289   -2.3102    1.7905 H   0  0  0  0  0  0  0  0  0 18  0  0
   -0.3267   -1.6817   -0.1627 C   0  0  0  0  0  0  0  0  0 19  0  0
    0.2686   -1.1565   -1.4540 C   0  0  0  0  0  0  0  0  0 20  0  0
    0.9084   -1.8815   -2.1814 O   0  0  0  0  0  0  0  0  0 21  0  0
   -0.0428    0.1538   -1.6809 N   0  0  0  0  0  0  0  0  0 22  0  0
    0.3273    0.9650   -2.7471 C   0  0  0  0  0  0  0  0  0 23  0  0
    1.1800    0.5475   -3.7632 C   0  0  0  0  0  0  0  0  0 24  0  0
    1.5671   -0.4507   -3.7356 H   0  0  0  0  0  0  0  0  0 37  0  0
    1.5160    1.4145   -4.7904 C   0  0  0  0  0  0  0  0  0 25  0  0
    2.1758    1.0691   -5.5723 H   0  0  0  0  0  0  0  0  0 36  0  0
    1.0140    2.7035   -4.8200 C   0  0  0  0  0  0  0  0  0 26  0  0
    1.2748    3.3835   -5.6162 H   0  0  0  0  0  0  0  0  0 35  0  0
    0.1731    3.1353   -3.8041 C   0  0  0  0  0  0  0  0  0 27  0  0
   -0.2293    4.1414   -3.8129 H   0  0  0  0  0  0  0  0  0 34  0  0
   -0.1853    2.2727   -2.7856 C   0  0  0  0  0  0  0  0  0 28  0  0
   -1.3034    2.8547   -1.5072 S   0  0  0  0  0  0  0  0  0 29  0  0
   -2.8607    2.1519   -2.1117 C   0  0  0  0  0  0  0  0  0 30  0  0
   -2.8528    1.0680   -2.0234 H   0  0  0  0  0  0  0  0  0 31  0  0
   -3.6348    2.5574   -1.4787 H   0  0  0  0  0  0  0  0  0 32  0  0
   -3.0419    2.4552   -3.1433 H   0  0  0  0  0  0  0  0  0 33  0  0
   -0.6330    0.6044   -0.9874 H   0  0  0  0  0  0  0  0  0 38  0  0
    0.2802   -2.5106    0.1982 H   0  0  0  0  0  0  0  0  0 39  0  0
   -1.3348   -2.0579   -0.3874 H   0  0  0  0  0  0  0  0  0 40  0  0
  1  2  1  0
  1  3  1  0
  1  4  1  0
  1  5  1  0
  5  6  1  0
  6  7  4  0
  7  8  1  0
  7  9  4  0
  9 10  1  0
  9 11  4  0
 11 12  1  0
 11 13  4  0
 13 14  1  0
 13 15  4  0
 15 16  1  0
 17 16  1  6
 17 18  2  0
 17 19  2  0
 17 20  1  0
 20 21  1  0
 20 22  1  0
 20 23  1  0
 16 24  1  0
 24 25  1  0
 25 26  2  0
 25 27  1  0
 27 28  1  0
 28 29  4  0
 29 30  1  0
 29 31  4  0
 31 32  1  0
 31 33  4  0
 33 34  1  0
 33 35  4  0
 35 36  1  0
 35 37  4  0
 37 38  1  0
 38 39  1  0
 39 40  1  0
 39 41  1  0
 39 42  1  0
 27 43  1  0
 24 44  1  0
 24 45  1  0
 15  6  4  0
 37 28  4  0
M  END
>  <sample_id>  (591)
train::COc1ccc(Cl)cc1N(CC(=O)Nc1ccccc1SC)S(C)(=O)=O__gen0002

>  <partition>  (591)
BAT_EXTERNAL_CONFIRM

>  <method>  (591)
BA_seed193

>  <candidate>  (591)
primary

$$$$
train::COc1ccc(-c2noc(CN(C)Cc3ccc(C)o3)n2)cc1__gen0000
     RDKit          3D

 42 44  0  0  0  0  0  0  0  0999 V2000
    2.5049   -5.1970   -2.2930 C   0  0  0  0  0  0  0  0  0  0  0  0
    2.1341   -5.6075   -1.3485 H   0  0  0  0  0  0  0  0  0  1  0  0
    1.7247   -4.1173   -2.7295 O   0  0  0  0  0  0  0  0  0  2  0  0
    1.6546   -2.9955   -1.9580 C   0  0  0  0  0  0  0  0  0  3  0  0
    0.8665   -1.9572   -2.4516 C   0  0  0  0  0  0  0  0  0  4  0  0
    0.3816   -2.1020   -3.4007 H   0  0  0  0  0  0  0  0  0 39  0  0
    0.7302   -0.7852   -1.7476 C   0  0  0  0  0  0  0  0  0  5  0  0
    0.1276    0.0196   -2.1305 H   0  0  0  0  0  0  0  0  0 38  0  0
    1.3878   -0.6214   -0.5405 C   0  0  0  0  0  0  0  0  0  6  0  0
    1.2071    0.6038    0.2150 C   0  0  0  0  0  0  0  0  0 11  0  0
    1.6899    0.8035    1.4199 N   0  0  0  0  0  0  0  0  0 12  0  0
    1.2453    2.0399    1.7776 O   0  0  0  0  0  0  0  0  0 13  0  0
    0.5143    2.5005    0.7426 C   0  0  0  0  0  0  0  0  0 14  0  0
   -0.1649    3.8251    0.8721 C   0  0  0  0  0  0  0  0  0 16  0  0
   -1.5429    3.8445    0.4567 N   0  0  0  0  0  0  0  0  0 17  0  0
   -1.7354    3.6878   -0.9655 C   0  0  0  0  0  0  0  0  0 18  0  0
   -1.1366    4.4275   -1.4941 H   0  0  0  0  0  0  0  0  0 19  0  0
   -1.4637    2.6871   -1.3152 H   0  0  0  0  0  0  0  0  0 20  0  0
   -2.7814    3.8756   -1.2118 H   0  0  0  0  0  0  0  0  0 21  0  0
   -2.4298    3.0050    1.2631 C   0  0  0  0  0  0  0  0  0 22  0  0
   -2.1664    1.5418    1.1529 C   0  0  0  0  0  0  0  0  0 23  0  0
   -2.4728    0.6168    0.1967 C   0  0  0  0  0  0  0  0  0 24  0  0
   -3.0209    0.7821   -0.7133 H   0  0  0  0  0  0  0  0  0 33  0  0
   -1.9177   -0.6120    0.6175 C   0  0  0  0  0  0  0  0  0 25  0  0
   -1.9507   -1.5552    0.1096 H   0  0  0  0  0  0  0  0  0 32  0  0
   -1.3090   -0.3621    1.8252 C   0  0  0  0  0  0  0  0  0 26  0  0
   -0.5541   -1.2440    2.7479 C   0  0  0  0  0  0  0  0  0 28  0  0
   -0.4710   -2.2391    2.3285 H   0  0  0  0  0  0  0  0  0 29  0  0
   -1.0528   -1.3034    3.7144 H   0  0  0  0  0  0  0  0  0 30  0  0
    0.4497   -0.8317    2.8884 H   0  0  0  0  0  0  0  0  0 31  0  0
   -1.4705    0.9379    2.1390 O   0  0  0  0  0  0  0  0  0 27  0  0
   -3.4549    3.2163    0.9515 H   0  0  0  0  0  0  0  0  0 34  0  0
   -2.3019    3.2989    2.3035 H   0  0  0  0  0  0  0  0  0 35  0  0
    0.3798    4.5614    0.2762 H   0  0  0  0  0  0  0  0  0 36  0  0
   -0.0882    4.1230    1.9266 H   0  0  0  0  0  0  0  0  0 37  0  0
    0.4836    1.6572   -0.2355 N   0  0  0  0  0  0  0  0  0 15  0  0
    2.1703   -1.6571   -0.0296 C   0  0  0  0  0  0  0  0  0  7  0  0
    2.6542   -1.5257    0.9271 H   0  0  0  0  0  0  0  0  0 10  0  0
    2.3040   -2.8387   -0.7278 C   0  0  0  0  0  0  0  0  0  8  0  0
    2.9137   -3.6245   -0.3152 H   0  0  0  0  0  0  0  0  0  9  0  0
    2.4058   -5.9619   -3.0638 H   0  0  0  0  0  0  0  0  0 40  0  0
    3.5560   -4.9168   -2.1801 H   0  0  0  0  0  0  0  0  0 41  0  0
  1  2  1  0
  1  3  1  0
  3  4  1  0
  4  5  4  0
  5  6  1  0
  5  7  4  0
  7  8  1  0
  7  9  4  0
  9 10  1  0
 10 11  4  0
 11 12  4  0
 12 13  4  0
 13 14  1  0
 14 15  1  0
 15 16  1  0
 16 17  1  0
 16 18  1  0
 16 19  1  0
 15 20  1  0
 20 21  1  0
 21 22  4  0
 22 23  1  0
 22 24  4  0
 24 25  1  0
 24 26  4  0
 26 27  1  0
 27 28  1  0
 27 29  1  0
 27 30  1  0
 26 31  4  0
 20 32  1  0
 20 33  1  0
 14 34  1  0
 14 35  1  0
 13 36  4  0
  9 37  4  0
 37 38  1  0
 37 39  4  0
 39 40  1  0
  1 41  1  0
  1 42  1  0
 39  4  4  0
 36 10  4  0
 31 21  4  0
M  END
>  <sample_id>  (592)
train::COc1ccc(-c2noc(CN(C)Cc3ccc(C)o3)n2)cc1__gen0000

>  <partition>  (592)
BAT_EXTERNAL_CONFIRM

>  <method>  (592)
BA_seed193

>  <candidate>  (592)
primary

$$$$
train::COc1ccc(-c2noc(CN(C)Cc3ccc(C)o3)n2)cc1__gen0001
     RDKit          3D

 42 44  0  0  0  0  0  0  0  0999 V2000
    0.6584    1.5207   -5.9234 C   0  0  0  0  0  0  0  0  0  0  0  0
   -0.0749    2.2763   -5.6416 H   0  0  0  0  0  0  0  0  0  1  0  0
    0.5774    0.3732   -5.0972 O   0  0  0  0  0  0  0  0  0  2  0  0
    0.8007    0.5131   -3.7573 C   0  0  0  0  0  0  0  0  0  3  0  0
    1.1227    1.7144   -3.1277 C   0  0  0  0  0  0  0  0  0  4  0  0
    1.1979    2.6378   -3.6936 H   0  0  0  0  0  0  0  0  0 39  0  0
    1.3331    1.7393   -1.7607 C   0  0  0  0  0  0  0  0  0  5  0  0
    1.5701    2.6696   -1.2550 H   0  0  0  0  0  0  0  0  0 38  0  0
    1.2263    0.5736   -1.0146 C   0  0  0  0  0  0  0  0  0  6  0  0
    1.4124    0.6014    0.4234 C   0  0  0  0  0  0  0  0  0 11  0  0
    1.6851    1.6763    1.1134 N   0  0  0  0  0  0  0  0  0 12  0  0
    1.7079    1.2686    2.4117 O   0  0  0  0  0  0  0  0  0 13  0  0
    1.4587   -0.0480    2.4095 C   0  0  0  0  0  0  0  0  0 14  0  0
    1.3315   -0.7756    3.7123 C   0  0  0  0  0  0  0  0  0 16  0  0
    0.1166   -1.5515    3.8540 N   0  0  0  0  0  0  0  0  0 17  0  0
    0.0715   -2.7204    2.9806 C   0  0  0  0  0  0  0  0  0 18  0  0
    0.9176   -3.3683    3.2148 H   0  0  0  0  0  0  0  0  0 19  0  0
    0.1212   -2.4591    1.9180 H   0  0  0  0  0  0  0  0  0 20  0  0
   -0.8615   -3.2577    3.1741 H   0  0  0  0  0  0  0  0  0 21  0  0
   -1.1163   -0.7711    3.8433 C   0  0  0  0  0  0  0  0  0 22  0  0
   -1.4460   -0.1343    2.5390 C   0  0  0  0  0  0  0  0  0 23  0  0
   -1.3538    1.1742    2.1301 C   0  0  0  0  0  0  0  0  0 24  0  0
   -1.0341    2.0117    2.7168 H   0  0  0  0  0  0  0  0  0 33  0  0
   -1.7889    1.2030    0.7778 C   0  0  0  0  0  0  0  0  0 25  0  0
   -1.8287    2.0506    0.1264 H   0  0  0  0  0  0  0  0  0 32  0  0
   -2.1106   -0.0889    0.4565 C   0  0  0  0  0  0  0  0  0 26  0  0
   -2.6012   -0.6909   -0.8139 C   0  0  0  0  0  0  0  0  0 28  0  0
   -3.3191   -1.4742   -0.5992 H   0  0  0  0  0  0  0  0  0 29  0  0
   -1.7717   -1.1388   -1.3633 H   0  0  0  0  0  0  0  0  0 30  0  0
   -3.0632    0.0731   -1.4367 H   0  0  0  0  0  0  0  0  0 31  0  0
   -1.9115   -0.8910    1.5181 O   0  0  0  0  0  0  0  0  0 27  0  0
   -1.0178    0.0142    4.5958 H   0  0  0  0  0  0  0  0  0 34  0  0
   -1.9224   -1.4497    4.1266 H   0  0  0  0  0  0  0  0  0 35  0  0
    2.1676   -1.4748    3.8127 H   0  0  0  0  0  0  0  0  0 36  0  0
    1.3929   -0.0246    4.4950 H   0  0  0  0  0  0  0  0  0 37  0  0
    1.2696   -0.5057    1.2093 N   0  0  0  0  0  0  0  0  0 15  0  0
    0.9292   -0.6284   -1.6509 C   0  0  0  0  0  0  0  0  0  7  0  0
    0.8598   -1.5272   -1.0631 H   0  0  0  0  0  0  0  0  0 10  0  0
    0.7264   -0.6541   -3.0101 C   0  0  0  0  0  0  0  0  0  8  0  0
    0.4687   -1.5730   -3.5191 H   0  0  0  0  0  0  0  0  0  9  0  0
    1.6633    1.9543   -5.9017 H   0  0  0  0  0  0  0  0  0 40  0  0
    0.4349    1.1618   -6.9307 H   0  0  0  0  0  0  0  0  0 41  0  0
  1  2  1  0
  1  3  1  0
  3  4  1  0
  4  5  4  0
  5  6  1  0
  5  7  4  0
  7  8  1  0
  7  9  4  0
  9 10  1  0
 10 11  4  0
 11 12  4  0
 12 13  4  0
 13 14  1  0
 14 15  1  0
 15 16  1  0
 16 17  1  0
 16 18  1  0
 16 19  1  0
 15 20  1  0
 20 21  1  0
 21 22  4  0
 22 23  1  0
 22 24  4  0
 24 25  1  0
 24 26  4  0
 26 27  1  0
 27 28  1  0
 27 29  1  0
 27 30  1  0
 26 31  4  0
 20 32  1  0
 20 33  1  0
 14 34  1  0
 14 35  1  0
 13 36  4  0
  9 37  4  0
 37 38  1  0
 37 39  4  0
 39 40  1  0
  1 41  1  0
  1 42  1  0
 39  4  4  0
 36 10  4  0
 31 21  4  0
M  END
>  <sample_id>  (593)
train::COc1ccc(-c2noc(CN(C)Cc3ccc(C)o3)n2)cc1__gen0001

>  <partition>  (593)
BAT_EXTERNAL_CONFIRM

>  <method>  (593)
BA_seed193

>  <candidate>  (593)
primary

$$$$
train::COc1ccc(-c2noc(CN(C)Cc3ccc(C)o3)n2)cc1__gen0002
     RDKit          3D

 42 44  0  0  0  0  0  0  0  0999 V2000
   -5.3805    0.9984    2.3152 C   0  0  0  0  0  0  0  0  0  0  0  0
   -5.3916    1.3536    1.2831 H   0  0  0  0  0  0  0  0  0  1  0  0
   -4.1663    1.3134    2.9571 O   0  0  0  0  0  0  0  0  0  2  0  0
   -3.0155    0.7980    2.4616 C   0  0  0  0  0  0  0  0  0  3  0  0
   -1.8516    1.1376    3.1548 C   0  0  0  0  0  0  0  0  0  4  0  0
   -1.9365    1.7937    4.0190 H   0  0  0  0  0  0  0  0  0 39  0  0
   -0.6150    0.6688    2.7488 C   0  0  0  0  0  0  0  0  0  5  0  0
    0.2802    0.9338    3.2737 H   0  0  0  0  0  0  0  0  0 38  0  0
   -0.5419   -0.1469    1.6319 C   0  0  0  0  0  0  0  0  0  6  0  0
    0.7408   -0.6315    1.1641 C   0  0  0  0  0  0  0  0  0 11  0  0
    1.8941   -0.3242    1.6960 N   0  0  0  0  0  0  0  0  0 12  0  0
    2.8331   -0.9385    0.9226 O   0  0  0  0  0  0  0  0  0 13  0  0
    2.1685   -1.5764   -0.0440 C   0  0  0  0  0  0  0  0  0 14  0  0
    2.9344   -2.2945   -1.1016 C   0  0  0  0  0  0  0  0  0 16  0  0
    2.5018   -2.0799   -2.4543 N   0  0  0  0  0  0  0  0  0 17  0  0
    1.2083   -2.6588   -2.7564 C   0  0  0  0  0  0  0  0  0 18  0  0
    1.0187   -2.5228   -3.8458 H   0  0  0  0  0  0  0  0  0 19  0  0
    0.3895   -2.2096   -2.1887 H   0  0  0  0  0  0  0  0  0 20  0  0
    1.2501   -3.7241   -2.5339 H   0  0  0  0  0  0  0  0  0 21  0  0
    2.6033   -0.6689   -2.8967 C   0  0  0  0  0  0  0  0  0 22  0  0
    1.7192    0.2873   -2.2024 C   0  0  0  0  0  0  0  0  0 23  0  0
    0.3755    0.5408   -2.3067 C   0  0  0  0  0  0  0  0  0 24  0  0
   -0.3221    0.0858   -2.9876 H   0  0  0  0  0  0  0  0  0 33  0  0
    0.0786    1.5467   -1.3630 C   0  0  0  0  0  0  0  0  0 25  0  0
   -0.8774    1.9814   -1.1518 H   0  0  0  0  0  0  0  0  0 32  0  0
    1.2565    1.8421   -0.7305 C   0  0  0  0  0  0  0  0  0 26  0  0
    1.5793    2.7817    0.3780 C   0  0  0  0  0  0  0  0  0 28  0  0
    2.4195    3.4112    0.0870 H   0  0  0  0  0  0  0  0  0 29  0  0
    1.8647    2.2236    1.2685 H   0  0  0  0  0  0  0  0  0 30  0  0
    0.7200    3.4051    0.5973 H   0  0  0  0  0  0  0  0  0 31  0  0
    2.2351    1.0868   -1.2398 O   0  0  0  0  0  0  0  0  0 27  0  0
    3.6444   -0.3738   -2.7440 H   0  0  0  0  0  0  0  0  0 34  0  0
    2.4061   -0.6620   -3.9688 H   0  0  0  0  0  0  0  0  0 35  0  0
    2.8917   -3.3720   -0.8988 H   0  0  0  0  0  0  0  0  0 36  0  0
    3.9894   -1.9957   -1.0094 H   0  0  0  0  0  0  0  0  0 37  0  0
    0.8842   -1.4525    0.0680 N   0  0  0  0  0  0  0  0  0 15  0  0
   -1.6971   -0.5072    0.9467 C   0  0  0  0  0  0  0  0  0  7  0  0
   -1.6195   -1.1425    0.0805 H   0  0  0  0  0  0  0  0  0 10  0  0
   -2.9285   -0.0389    1.3436 C   0  0  0  0  0  0  0  0  0  8  0  0
   -3.8054   -0.3190    0.8051 H   0  0  0  0  0  0  0  0  0  9  0  0
   -6.1619    1.5237    2.8876 H   0  0  0  0  0  0  0  0  0 40  0  0
   -5.5763   -0.0740    2.3341 H   0  0  0  0  0  0  0  0  0 41  0  0
  1  2  1  0
  1  3  1  0
  3  4  1  0
  4  5  4  0
  5  6  1  0
  5  7  4  0
  7  8  1  0
  7  9  4  0
  9 10  1  0
 10 11  4  0
 11 12  4  0
 12 13  4  0
 13 14  1  0
 14 15  1  0
 15 16  1  0
 16 17  1  0
 16 18  1  0
 16 19  1  0
 15 20  1  0
 20 21  1  0
 21 22  4  0
 22 23  1  0
 22 24  4  0
 24 25  1  0
 24 26  4  0
 26 27  1  0
 27 28  1  0
 27 29  1  0
 27 30  1  0
 26 31  4  0
 20 32  1  0
 20 33  1  0
 14 34  1  0
 14 35  1  0
 13 36  4  0
  9 37  4  0
 37 38  1  0
 37 39  4  0
 39 40  1  0
  1 41  1  0
  1 42  1  0
 39  4  4  0
 36 10  4  0
 31 21  4  0
M  END
>  <sample_id>  (594)
train::COc1ccc(-c2noc(CN(C)Cc3ccc(C)o3)n2)cc1__gen0002

>  <partition>  (594)
BAT_EXTERNAL_CONFIRM

>  <method>  (594)
BA_seed193

>  <candidate>  (594)
primary

$$$$
train::Cc1ccccc1C(=O)N_N=C_c1ccc(Sc2ccccn2)o1__gen0000
     RDKit          3D

 39 41  0  0  0  0  0  0  0  0999 V2000
    2.6534   -1.8718   -4.9060 C   0  0  0  0  0  0  0  0  0  0  0  0
    1.6239   -2.4750   -4.0026 C   0  0  0  0  0  0  0  0  0  1  0  0
    1.6133   -3.8433   -3.7632 C   0  0  0  0  0  0  0  0  0  2  0  0
    2.3490   -4.4683   -4.2439 H   0  0  0  0  0  0  0  0  0 35  0  0
    0.6692   -4.4233   -2.9293 C   0  0  0  0  0  0  0  0  0  3  0  0
    0.6913   -5.4891   -2.7472 H   0  0  0  0  0  0  0  0  0 34  0  0
   -0.2851   -3.6252   -2.3187 C   0  0  0  0  0  0  0  0  0  4  0  0
   -1.0170   -4.0783   -1.6675 H   0  0  0  0  0  0  0  0  0 33  0  0
   -0.2909   -2.2607   -2.5355 C   0  0  0  0  0  0  0  0  0  5  0  0
   -1.0335   -1.6374   -2.0639 H   0  0  0  0  0  0  0  0  0 32  0  0
    0.6624   -1.6787   -3.3610 C   0  0  0  0  0  0  0  0  0  6  0  0
    0.6108   -0.2094   -3.6322 C   0  0  0  0  0  0  0  0  0  7  0  0
    0.6337    0.2898   -4.7406 O   0  0  0  0  0  0  0  0  0  8  0  0
    0.5186    0.5891   -2.5279 N   0  0  0  0  0  0  0  0  0  9  0  0
    0.5250    0.1231   -1.2665 N   0  0  0  0  0  0  0  0  0 10  0  0
    0.4679    0.9514   -0.2909 C   0  0  0  0  0  0  0  0  0 11  0  0
    0.4624    0.4725    1.0496 C   0  0  0  0  0  0  0  0  0 12  0  0
    0.4537   -0.8081    1.5713 C   0  0  0  0  0  0  0  0  0 13  0  0
    0.4733   -1.7059    0.9876 H   0  0  0  0  0  0  0  0  0 29  0  0
    0.4291   -0.6726    2.9743 C   0  0  0  0  0  0  0  0  0 14  0  0
    0.4159   -1.4496    3.7132 H   0  0  0  0  0  0  0  0  0 28  0  0
    0.4251    0.6794    3.2060 C   0  0  0  0  0  0  0  0  0 15  0  0
    0.4069    1.5372    4.7351 S   0  0  0  0  0  0  0  0  0 17  0  0
   -1.0337    2.5676    4.5230 C   0  0  0  0  0  0  0  0  0 18  0  0
   -1.7068    2.4604    3.3908 N   0  0  0  0  0  0  0  0  0 19  0  0
   -2.7761    3.2188    3.2396 C   0  0  0  0  0  0  0  0  0 20  0  0
   -3.2919    3.0962    2.2971 H   0  0  0  0  0  0  0  0  0 27  0  0
   -3.2126    4.1255    4.1995 C   0  0  0  0  0  0  0  0  0 21  0  0
   -4.0832    4.7325    4.0223 H   0  0  0  0  0  0  0  0  0 26  0  0
   -2.4967    4.2171    5.3859 C   0  0  0  0  0  0  0  0  0 22  0  0
   -2.7997    4.9081    6.1587 H   0  0  0  0  0  0  0  0  0 25  0  0
   -1.3739    3.4275    5.5553 C   0  0  0  0  0  0  0  0  0 23  0  0
   -0.7825    3.4458    6.4553 H   0  0  0  0  0  0  0  0  0 24  0  0
    0.4437    1.3711    2.0588 O   0  0  0  0  0  0  0  0  0 16  0  0
    0.4066    2.0290   -0.4328 H   0  0  0  0  0  0  0  0  0 30  0  0
    0.4973    1.5987   -2.7005 H   0  0  0  0  0  0  0  0  0 31  0  0
    2.1891   -1.2126   -5.6311 H   0  0  0  0  0  0  0  0  0 36  0  0
    3.3610   -1.2770   -4.3308 H   0  0  0  0  0  0  0  0  0 37  0  0
    3.2010   -2.6545   -5.4312 H   0  0  0  0  0  0  0  0  0 38  0  0
  1  2  1  0
  2  3  4  0
  3  4  1  0
  3  5  4  0
  5  6  1  0
  5  7  4  0
  7  8  1  0
  7  9  4  0
  9 10  1  0
  9 11  4  0
 11 12  1  0
 12 13  2  0
 12 14  1  0
 14 15  1  0
 15 16  2  0
 16 17  1  0
 17 18  4  0
 18 19  1  0
 18 20  4  0
 20 21  1  0
 20 22  4  0
 22 23  1  0
 23 24  1  0
 24 25  4  0
 25 26  4  0
 26 27  1  0
 26 28  4  0
 28 29  1  0
 28 30  4  0
 30 31  1  0
 30 32  4  0
 32 33  1  0
 22 34  4  0
 16 35  1  0
 14 36  1  0
  1 37  1  0
  1 38  1  0
  1 39  1  0
 11  2  4  0
 34 17  4  0
 32 24  4  0
M  END
>  <sample_id>  (595)
train::Cc1ccccc1C(=O)N_N=C_c1ccc(Sc2ccccn2)o1__gen0000

>  <partition>  (595)
BAT_EXTERNAL_CONFIRM

>  <method>  (595)
BA_seed193

>  <candidate>  (595)
primary

$$$$
train::Cc1ccccc1C(=O)N_N=C_c1ccc(Sc2ccccn2)o1__gen0001
     RDKit          3D

 39 41  0  0  0  0  0  0  0  0999 V2000
    4.9349   -2.6754    1.5510 C   0  0  0  0  0  0  0  0  0  0  0  0
    4.1736   -2.4593    2.8367 C   0  0  0  0  0  0  0  0  0  1  0  0
    4.7654   -2.7004    4.0704 C   0  0  0  0  0  0  0  0  0  2  0  0
    5.7817   -3.0665    4.0960 H   0  0  0  0  0  0  0  0  0 35  0  0
    4.0730   -2.5172    5.2511 C   0  0  0  0  0  0  0  0  0  3  0  0
    4.5605   -2.7191    6.1927 H   0  0  0  0  0  0  0  0  0 34  0  0
    2.7676   -2.0541    5.2188 C   0  0  0  0  0  0  0  0  0  4  0  0
    2.2199   -1.9075    6.1394 H   0  0  0  0  0  0  0  0  0 33  0  0
    2.1602   -1.7975    4.0089 C   0  0  0  0  0  0  0  0  0  5  0  0
    1.1296   -1.4546    3.9846 H   0  0  0  0  0  0  0  0  0 32  0  0
    2.8531   -1.9975    2.8195 C   0  0  0  0  0  0  0  0  0  6  0  0
    2.1575   -1.7379    1.5207 C   0  0  0  0  0  0  0  0  0  7  0  0
    2.0994   -2.5098    0.5977 O   0  0  0  0  0  0  0  0  0  8  0  0
    1.5571   -0.4986    1.5063 N   0  0  0  0  0  0  0  0  0  9  0  0
    0.8481   -0.0662    0.4501 N   0  0  0  0  0  0  0  0  0 10  0  0
    0.3858    1.1158    0.4441 C   0  0  0  0  0  0  0  0  0 11  0  0
   -0.4235    1.6196   -0.6324 C   0  0  0  0  0  0  0  0  0 12  0  0
   -0.9199    2.8863   -0.8316 C   0  0  0  0  0  0  0  0  0 13  0  0
   -0.7886    3.7434   -0.2008 H   0  0  0  0  0  0  0  0  0 29  0  0
   -1.6231    2.8460   -2.0568 C   0  0  0  0  0  0  0  0  0 14  0  0
   -2.1533    3.6556   -2.5261 H   0  0  0  0  0  0  0  0  0 28  0  0
   -1.5235    1.5458   -2.4965 C   0  0  0  0  0  0  0  0  0 15  0  0
   -2.0819    0.7656   -3.9338 S   0  0  0  0  0  0  0  0  0 17  0  0
   -3.7654    1.3279   -4.0537 C   0  0  0  0  0  0  0  0  0 18  0  0
   -4.1733    2.2474   -3.2078 N   0  0  0  0  0  0  0  0  0 19  0  0
   -5.4217    2.6716   -3.3104 C   0  0  0  0  0  0  0  0  0 20  0  0
   -5.7116    3.4207   -2.5895 H   0  0  0  0  0  0  0  0  0 27  0  0
   -6.3120    2.1965   -4.2645 C   0  0  0  0  0  0  0  0  0 21  0  0
   -7.3149    2.5812   -4.3037 H   0  0  0  0  0  0  0  0  0 26  0  0
   -5.8531    1.2386   -5.1612 C   0  0  0  0  0  0  0  0  0 22  0  0
   -6.5199    0.8483   -5.9192 H   0  0  0  0  0  0  0  0  0 25  0  0
   -4.5576    0.7862   -5.0658 C   0  0  0  0  0  0  0  0  0 23  0  0
   -4.1534    0.0547   -5.7366 H   0  0  0  0  0  0  0  0  0 24  0  0
   -0.7892    0.8144   -1.6451 O   0  0  0  0  0  0  0  0  0 16  0  0
    0.5903    1.8322    1.2546 H   0  0  0  0  0  0  0  0  0 30  0  0
    1.6991    0.1379    2.2977 H   0  0  0  0  0  0  0  0  0 31  0  0
    5.0068   -1.7479    1.0015 H   0  0  0  0  0  0  0  0  0 36  0  0
    5.9266   -3.0490    1.7691 H   0  0  0  0  0  0  0  0  0 37  0  0
    4.3958   -3.3774    0.9248 H   0  0  0  0  0  0  0  0  0 38  0  0
  1  2  1  0
  2  3  4  0
  3  4  1  0
  3  5  4  0
  5  6  1  0
  5  7  4  0
  7  8  1  0
  7  9  4  0
  9 10  1  0
  9 11  4  0
 11 12  1  0
 12 13  2  0
 12 14  1  0
 14 15  1  0
 15 16  2  0
 16 17  1  0
 17 18  4  0
 18 19  1  0
 18 20  4  0
 20 21  1  0
 20 22  4  0
 22 23  1  0
 23 24  1  0
 24 25  4  0
 25 26  4  0
 26 27  1  0
 26 28  4  0
 28 29  1  0
 28 30  4  0
 30 31  1  0
 30 32  4  0
 32 33  1  0
 22 34  4  0
 16 35  1  0
 14 36  1  0
  1 37  1  0
  1 38  1  0
  1 39  1  0
 11  2  4  0
 34 17  4  0
 32 24  4  0
M  END
>  <sample_id>  (596)
train::Cc1ccccc1C(=O)N_N=C_c1ccc(Sc2ccccn2)o1__gen0001

>  <partition>  (596)
BAT_EXTERNAL_CONFIRM

>  <method>  (596)
BA_seed193

>  <candidate>  (596)
primary

$$$$
train::Cc1ccccc1C(=O)N_N=C_c1ccc(Sc2ccccn2)o1__gen0002
     RDKit          3D

 39 41  0  0  0  0  0  0  0  0999 V2000
    2.4672   -0.4033    3.0954 C   0  0  0  0  0  0  0  0  0  0  0  0
    1.0090   -0.5869    2.7876 C   0  0  0  0  0  0  0  0  0  1  0  0
    0.4428   -1.8572    2.7460 C   0  0  0  0  0  0  0  0  0  2  0  0
    1.0606   -2.7100    2.9551 H   0  0  0  0  0  0  0  0  0 35  0  0
   -0.8858   -2.0351    2.4217 C   0  0  0  0  0  0  0  0  0  3  0  0
   -1.3083   -3.0297    2.3941 H   0  0  0  0  0  0  0  0  0 34  0  0
   -1.6960   -0.9392    2.1497 C   0  0  0  0  0  0  0  0  0  4  0  0
   -2.7443   -1.0703    1.9150 H   0  0  0  0  0  0  0  0  0 33  0  0
   -1.1525    0.3333    2.1881 C   0  0  0  0  0  0  0  0  0  5  0  0
   -1.7801    1.1807    1.9854 H   0  0  0  0  0  0  0  0  0 32  0  0
    0.1870    0.5156    2.5047 C   0  0  0  0  0  0  0  0  0  6  0  0
    0.7389    1.8983    2.6014 C   0  0  0  0  0  0  0  0  0  7  0  0
    1.3328    2.3501    3.5499 O   0  0  0  0  0  0  0  0  0  8  0  0
    0.4693    2.7035    1.4987 N   0  0  0  0  0  0  0  0  0  9  0  0
   -0.0854    2.2276    0.3879 N   0  0  0  0  0  0  0  0  0 10  0  0
   -0.2690    3.0042   -0.6209 C   0  0  0  0  0  0  0  0  0 11  0  0
   -0.8440    2.4761   -1.7988 C   0  0  0  0  0  0  0  0  0 12  0  0
   -1.2072    3.1039   -2.9902 C   0  0  0  0  0  0  0  0  0 13  0  0
   -1.1113    4.1541   -3.2020 H   0  0  0  0  0  0  0  0  0 29  0  0
   -1.7350    2.1060   -3.8241 C   0  0  0  0  0  0  0  0  0 14  0  0
   -2.1115    2.2291   -4.8143 H   0  0  0  0  0  0  0  0  0 28  0  0
   -1.6462    0.9482   -3.1056 C   0  0  0  0  0  0  0  0  0 15  0  0
   -2.1134   -0.6847   -3.5776 S   0  0  0  0  0  0  0  0  0 17  0  0
   -0.7604   -1.5769   -2.8063 C   0  0  0  0  0  0  0  0  0 18  0  0
    0.0221   -2.2154   -3.6556 N   0  0  0  0  0  0  0  0  0 19  0  0
    1.0441   -2.8895   -3.1663 C   0  0  0  0  0  0  0  0  0 20  0  0
    1.6579   -3.4019   -3.9027 H   0  0  0  0  0  0  0  0  0 27  0  0
    1.3354   -2.9665   -1.8077 C   0  0  0  0  0  0  0  0  0 21  0  0
    2.1843   -3.5163   -1.4643 H   0  0  0  0  0  0  0  0  0 26  0  0
    0.5125   -2.2836   -0.9324 C   0  0  0  0  0  0  0  0  0 22  0  0
    0.6869   -2.2942    0.1344 H   0  0  0  0  0  0  0  0  0 25  0  0
   -0.5743   -1.5695   -1.4229 C   0  0  0  0  0  0  0  0  0 23  0  0
   -1.2607   -1.0499   -0.7702 H   0  0  0  0  0  0  0  0  0 24  0  0
   -1.1396    1.1572   -1.8915 O   0  0  0  0  0  0  0  0  0 16  0  0
    0.0001    4.0636   -0.6293 H   0  0  0  0  0  0  0  0  0 30  0  0
    0.8060    3.6656    1.5636 H   0  0  0  0  0  0  0  0  0 31  0  0
    2.9071   -1.3427    3.4090 H   0  0  0  0  0  0  0  0  0 36  0  0
    2.5804    0.3395    3.8833 H   0  0  0  0  0  0  0  0  0 37  0  0
    2.9807   -0.0339    2.2117 H   0  0  0  0  0  0  0  0  0 38  0  0
  1  2  1  0
  2  3  4  0
  3  4  1  0
  3  5  4  0
  5  6  1  0
  5  7  4  0
  7  8  1  0
  7  9  4  0
  9 10  1  0
  9 11  4  0
 11 12  1  0
 12 13  2  0
 12 14  1  0
 14 15  1  0
 15 16  2  0
 16 17  1  0
 17 18  4  0
 18 19  1  0
 18 20  4  0
 20 21  1  0
 20 22  4  0
 22 23  1  0
 23 24  1  0
 24 25  4  0
 25 26  4  0
 26 27  1  0
 26 28  4  0
 28 29  1  0
 28 30  4  0
 30 31  1  0
 30 32  4  0
 32 33  1  0
 22 34  4  0
 16 35  1  0
 14 36  1  0
  1 37  1  0
  1 38  1  0
  1 39  1  0
 11  2  4  0
 34 17  4  0
 32 24  4  0
M  END
>  <sample_id>  (597)
train::Cc1ccccc1C(=O)N_N=C_c1ccc(Sc2ccccn2)o1__gen0002

>  <partition>  (597)
BAT_EXTERNAL_CONFIRM

>  <method>  (597)
BA_seed193

>  <candidate>  (597)
primary

$$$$
train::c1ccc(COC2CCCN(Cc3nc(Cc4ccccc4)no3)C2)cc1__gen0000
     RDKit          3D

 52 55  0  0  0  0  0  0  0  0999 V2000
   -0.5164    1.1716   -3.1940 C   0  0  0  0  0  0  0  0  0  0  0  0
   -1.2762    0.7028   -3.8071 H   0  0  0  0  0  0  0  0  0 51  0  0
    0.8157    0.8507   -3.4013 C   0  0  0  0  0  0  0  0  0  1  0  0
    1.0935    0.1352   -4.1580 H   0  0  0  0  0  0  0  0  0 50  0  0
    1.7949    1.4474   -2.6289 C   0  0  0  0  0  0  0  0  0  2  0  0
    2.8346    1.1918   -2.7731 H   0  0  0  0  0  0  0  0  0 49  0  0
    1.4558    2.3565   -1.6331 C   0  0  0  0  0  0  0  0  0  3  0  0
    2.5039    3.0009   -0.7601 C   0  0  0  0  0  0  0  0  0  8  0  0
    2.1287    3.0194    0.6100 O   0  0  0  0  0  0  0  0  0  9  0  0
    2.4017    1.8683    1.3873 C   0  0  1  0  0  0  0  0  0 10  0  0
    3.4637    1.8129    1.6403 H   0  0  0  0  0  0  0  0  0 46  0  0
    1.5974    2.0326    2.6719 C   0  0  0  0  0  0  0  0  0 11  0  0
    0.5430    2.1393    2.4010 H   0  0  0  0  0  0  0  0  0 44  0  0
    1.9230    2.9382    3.1942 H   0  0  0  0  0  0  0  0  0 45  0  0
    1.7852    0.8120    3.5605 C   0  0  0  0  0  0  0  0  0 12  0  0
    1.1516    0.8880    4.4427 H   0  0  0  0  0  0  0  0  0 42  0  0
    2.8234    0.7545    3.8807 H   0  0  0  0  0  0  0  0  0 43  0  0
    1.4274   -0.4606    2.7913 C   0  0  0  0  0  0  0  0  0 13  0  0
    1.6044   -1.3429    3.4189 H   0  0  0  0  0  0  0  0  0 40  0  0
    0.3655   -0.4368    2.5054 H   0  0  0  0  0  0  0  0  0 41  0  0
    2.2803   -0.5509    1.6211 N   0  0  0  0  0  0  0  0  0 14  0  0
    2.3512   -1.8432    1.0080 C   0  0  0  0  0  0  0  0  0 18  0  0
    1.1547   -2.2662    0.2140 C   0  0  0  0  0  0  0  0  0 19  0  0
    0.2499   -1.5593   -0.4061 N   0  0  0  0  0  0  0  0  0 20  0  0
   -0.5432   -2.4962   -0.9881 C   0  0  0  0  0  0  0  0  0 21  0  0
   -1.7419   -2.1459   -1.7841 C   0  0  0  0  0  0  0  0  0 24  0  0
   -2.9032   -1.8391   -0.8828 C   0  0  0  0  0  0  0  0  0 25  0  0
   -3.6724   -0.7035   -1.0894 C   0  0  0  0  0  0  0  0  0 26  0  0
   -3.4314   -0.0384   -1.9018 H   0  0  0  0  0  0  0  0  0 35  0  0
   -4.7360   -0.4171   -0.2482 C   0  0  0  0  0  0  0  0  0 27  0  0
   -5.3192    0.4729   -0.4030 H   0  0  0  0  0  0  0  0  0 34  0  0
   -5.0537   -1.2681    0.7973 C   0  0  0  0  0  0  0  0  0 28  0  0
   -5.8648   -1.0421    1.4618 H   0  0  0  0  0  0  0  0  0 33  0  0
   -4.2829   -2.4019    1.0126 C   0  0  0  0  0  0  0  0  0 29  0  0
   -4.5202   -3.0786    1.8218 H   0  0  0  0  0  0  0  0  0 32  0  0
   -3.2185   -2.6863    0.1751 C   0  0  0  0  0  0  0  0  0 30  0  0
   -2.6269   -3.5781    0.3296 H   0  0  0  0  0  0  0  0  0 31  0  0
   -1.5022   -1.2751   -2.4027 H   0  0  0  0  0  0  0  0  0 36  0  0
   -1.9761   -2.9900   -2.4375 H   0  0  0  0  0  0  0  0  0 37  0  0
   -0.1332   -3.7146   -0.7581 N   0  0  0  0  0  0  0  0  0 22  0  0
    0.9702   -3.5806    0.0270 O   0  0  0  0  0  0  0  0  0 23  0  0
    2.5289   -2.6020    1.7682 H   0  0  0  0  0  0  0  0  0 38  0  0
    3.2120   -1.8544    0.3217 H   0  0  0  0  0  0  0  0  0 39  0  0
    2.0171    0.5456    0.7073 C   0  0  0  0  0  0  0  0  0 15  0  0
    2.6053    0.3793   -0.1995 H   0  0  0  0  0  0  0  0  0 16  0  0
    0.9561    0.5818    0.4236 H   0  0  0  0  0  0  0  0  0 17  0  0
    2.6015    4.0543   -1.0346 H   0  0  0  0  0  0  0  0  0 47  0  0
    3.4841    2.5055   -0.8977 H   0  0  0  0  0  0  0  0  0 48  0  0
    0.1163    2.6823   -1.4437 C   0  0  0  0  0  0  0  0  0  4  0  0
   -0.1489    3.3956   -0.6802 H   0  0  0  0  0  0  0  0  0  7  0  0
   -0.8665    2.0852   -2.2126 C   0  0  0  0  0  0  0  0  0  5  0  0
   -1.9071    2.3469   -2.0674 H   0  0  0  0  0  0  0  0  0  6  0  0
  1  2  1  0
  1  3  4  0
  3  4  1  0
  3  5  4  0
  5  6  1  0
  5  7  4  0
  7  8  1  0
  8  9  1  0
  9 10  1  0
 10 11  1  1
 10 12  1  0
 12 13  1  0
 12 14  1  0
 12 15  1  0
 15 16  1  0
 15 17  1  0
 15 18  1  0
 18 19  1  0
 18 20  1  0
 18 21  1  0
 21 22  1  0
 22 23  1  0
 23 24  4  0
 24 25  4  0
 25 26  1  0
 26 27  1  0
 27 28  4  0
 28 29  1  0
 28 30  4  0
 30 31  1  0
 30 32  4  0
 32 33  1  0
 32 34  4  0
 34 35  1  0
 34 36  4  0
 36 37  1  0
 26 38  1  0
 26 39  1  0
 25 40  4  0
 40 41  4  0
 22 42  1  0
 22 43  1  0
 21 44  1  0
 44 45  1  0
 44 46  1  0
  8 47  1  0
  8 48  1  0
  7 49  4  0
 49 50  1  0
 49 51  4  0
 51 52  1  0
 51  1  4  0
 44 10  1  0
 41 23  4  0
 36 27  4  0
M  END
>  <sample_id>  (598)
train::c1ccc(COC2CCCN(Cc3nc(Cc4ccccc4)no3)C2)cc1__gen0000

>  <partition>  (598)
BAT_EXTERNAL_CONFIRM

>  <method>  (598)
BA_seed193

>  <candidate>  (598)
primary

$$$$
train::c1ccc(COC2CCCN(Cc3nc(Cc4ccccc4)no3)C2)cc1__gen0001
     RDKit          3D

 52 55  0  0  0  0  0  0  0  0999 V2000
    3.4219   -3.5340    1.9311 C   0  0  0  0  0  0  0  0  0  0  0  0
    4.1216   -4.3533    1.8787 H   0  0  0  0  0  0  0  0  0 51  0  0
    3.8801   -2.2464    2.1541 C   0  0  0  0  0  0  0  0  0  1  0  0
    4.9348   -2.0568    2.2892 H   0  0  0  0  0  0  0  0  0 50  0  0
    2.9832   -1.1938    2.2152 C   0  0  0  0  0  0  0  0  0  2  0  0
    3.3165   -0.1880    2.3972 H   0  0  0  0  0  0  0  0  0 49  0  0
    1.6256   -1.4211    2.0456 C   0  0  0  0  0  0  0  0  0  3  0  0
    0.6500   -0.2741    2.1168 C   0  0  0  0  0  0  0  0  0  8  0  0
    1.0694    0.8564    1.3765 O   0  0  0  0  0  0  0  0  0  9  0  0
    0.7736    0.8084   -0.0123 C   0  0  1  0  0  0  0  0  0 10  0  0
   -0.2243    0.3898   -0.1783 H   0  0  0  0  0  0  0  0  0 46  0  0
    0.8227    2.2498   -0.5275 C   0  0  0  0  0  0  0  0  0 11  0  0
    1.8108    2.6662   -0.3087 H   0  0  0  0  0  0  0  0  0 44  0  0
    0.0662    2.8357   -0.0054 H   0  0  0  0  0  0  0  0  0 45  0  0
    0.5629    2.2635   -2.0243 C   0  0  0  0  0  0  0  0  0 12  0  0
    0.6489    3.2855   -2.4083 H   0  0  0  0  0  0  0  0  0 42  0  0
   -0.4434    1.9073   -2.2218 H   0  0  0  0  0  0  0  0  0 43  0  0
    1.5916    1.3759   -2.7321 C   0  0  0  0  0  0  0  0  0 13  0  0
    2.5931    1.8034   -2.5916 H   0  0  0  0  0  0  0  0  0 40  0  0
    1.3900    1.3463   -3.8084 H   0  0  0  0  0  0  0  0  0 41  0  0
    1.6675    0.0131   -2.2585 N   0  0  0  0  0  0  0  0  0 14  0  0
    0.7794   -0.9625   -2.8694 C   0  0  0  0  0  0  0  0  0 18  0  0
   -0.6625   -0.7606   -2.6204 C   0  0  0  0  0  0  0  0  0 19  0  0
   -1.3269   -1.0039   -1.5328 N   0  0  0  0  0  0  0  0  0 20  0  0
   -2.5785   -0.5499   -1.7878 C   0  0  0  0  0  0  0  0  0 21  0  0
   -3.6490   -0.5165   -0.7782 C   0  0  0  0  0  0  0  0  0 24  0  0
   -3.2748    0.5062    0.2619 C   0  0  0  0  0  0  0  0  0 25  0  0
   -3.0648    1.8239   -0.1191 C   0  0  0  0  0  0  0  0  0 26  0  0
   -3.2164    2.1164   -1.1466 H   0  0  0  0  0  0  0  0  0 35  0  0
   -2.6865    2.7640    0.8277 C   0  0  0  0  0  0  0  0  0 27  0  0
   -2.5108    3.7852    0.5199 H   0  0  0  0  0  0  0  0  0 34  0  0
   -2.4752    2.3862    2.1413 C   0  0  0  0  0  0  0  0  0 28  0  0
   -2.1780    3.1207    2.8685 H   0  0  0  0  0  0  0  0  0 33  0  0
   -2.6880    1.0777    2.5200 C   0  0  0  0  0  0  0  0  0 29  0  0
   -2.5523    0.7867    3.5507 H   0  0  0  0  0  0  0  0  0 32  0  0
   -3.0858    0.1417    1.5826 C   0  0  0  0  0  0  0  0  0 30  0  0
   -3.2381   -0.8889    1.8839 H   0  0  0  0  0  0  0  0  0 31  0  0
   -4.5821   -0.2475   -1.2788 H   0  0  0  0  0  0  0  0  0 36  0  0
   -3.7708   -1.5056   -0.3203 H   0  0  0  0  0  0  0  0  0 37  0  0
   -2.6719   -0.0287   -2.9886 N   0  0  0  0  0  0  0  0  0 22  0  0
   -1.4372   -0.1581   -3.5371 O   0  0  0  0  0  0  0  0  0 23  0  0
    0.9316   -0.9156   -3.9554 H   0  0  0  0  0  0  0  0  0 38  0  0
    1.0788   -1.9484   -2.5012 H   0  0  0  0  0  0  0  0  0 39  0  0
    1.7859   -0.0539   -0.8006 C   0  0  0  0  0  0  0  0  0 15  0  0
    1.6999   -1.1042   -0.5080 H   0  0  0  0  0  0  0  0  0 16  0  0
    2.7916    0.2857   -0.5271 H   0  0  0  0  0  0  0  0  0 17  0  0
    0.5861    0.0903    3.1544 H   0  0  0  0  0  0  0  0  0 47  0  0
   -0.3418   -0.6103    1.8054 H   0  0  0  0  0  0  0  0  0 48  0  0
    1.1768   -2.7187    1.8120 C   0  0  0  0  0  0  0  0  0  4  0  0
    0.1232   -2.8961    1.6775 H   0  0  0  0  0  0  0  0  0  7  0  0
    2.0636   -3.7751    1.7654 C   0  0  0  0  0  0  0  0  0  5  0  0
    1.7117   -4.7741    1.5733 H   0  0  0  0  0  0  0  0  0  6  0  0
  1  2  1  0
  1  3  4  0
  3  4  1  0
  3  5  4  0
  5  6  1  0
  5  7  4  0
  7  8  1  0
  8  9  1  0
  9 10  1  0
 10 11  1  1
 10 12  1  0
 12 13  1  0
 12 14  1  0
 12 15  1  0
 15 16  1  0
 15 17  1  0
 15 18  1  0
 18 19  1  0
 18 20  1  0
 18 21  1  0
 21 22  1  0
 22 23  1  0
 23 24  4  0
 24 25  4  0
 25 26  1  0
 26 27  1  0
 27 28  4  0
 28 29  1  0
 28 30  4  0
 30 31  1  0
 30 32  4  0
 32 33  1  0
 32 34  4  0
 34 35  1  0
 34 36  4  0
 36 37  1  0
 26 38  1  0
 26 39  1  0
 25 40  4  0
 40 41  4  0
 22 42  1  0
 22 43  1  0
 21 44  1  0
 44 45  1  0
 44 46  1  0
  8 47  1  0
  8 48  1  0
  7 49  4  0
 49 50  1  0
 49 51  4  0
 51 52  1  0
 51  1  4  0
 44 10  1  0
 41 23  4  0
 36 27  4  0
M  END
>  <sample_id>  (599)
train::c1ccc(COC2CCCN(Cc3nc(Cc4ccccc4)no3)C2)cc1__gen0001

>  <partition>  (599)
BAT_EXTERNAL_CONFIRM

>  <method>  (599)
BA_seed193

>  <candidate>  (599)
primary

$$$$
train::c1ccc(COC2CCCN(Cc3nc(Cc4ccccc4)no3)C2)cc1__gen0002
     RDKit          3D

 52 55  0  0  0  0  0  0  0  0999 V2000
   -1.7204   -0.7924    3.4093 C   0  0  0  0  0  0  0  0  0  0  0  0
   -2.3663   -1.4906    3.9152 H   0  0  0  0  0  0  0  0  0 51  0  0
   -2.1665   -0.1514    2.2623 C   0  0  0  0  0  0  0  0  0  1  0  0
   -3.1507   -0.3767    1.8684 H   0  0  0  0  0  0  0  0  0 50  0  0
   -1.3372    0.7295    1.5983 C   0  0  0  0  0  0  0  0  0  2  0  0
   -1.6724    1.2340    0.7101 H   0  0  0  0  0  0  0  0  0 49  0  0
   -0.0699    1.0169    2.0884 C   0  0  0  0  0  0  0  0  0  3  0  0
    0.8460    1.9521    1.3490 C   0  0  0  0  0  0  0  0  0  8  0  0
    2.1256    1.3657    1.0717 O   0  0  0  0  0  0  0  0  0  9  0  0
    2.0621    0.2410    0.1944 C   0  0  1  0  0  0  0  0  0 10  0  0
    1.0377    0.0574   -0.1792 H   0  0  0  0  0  0  0  0  0 46  0  0
    2.9770    0.4867   -1.0019 C   0  0  0  0  0  0  0  0  0 11  0  0
    2.6213    1.3535   -1.5523 H   0  0  0  0  0  0  0  0  0 44  0  0
    3.9781    0.6880   -0.6269 H   0  0  0  0  0  0  0  0  0 45  0  0
    2.9709   -0.7626   -1.8867 C   0  0  0  0  0  0  0  0  0 12  0  0
    1.9660   -0.9329   -2.2698 H   0  0  0  0  0  0  0  0  0 42  0  0
    3.6648   -0.6249   -2.7142 H   0  0  0  0  0  0  0  0  0 43  0  0
    3.4183   -1.9741   -1.0525 C   0  0  0  0  0  0  0  0  0 13  0  0
    3.3846   -2.8723   -1.6689 H   0  0  0  0  0  0  0  0  0 40  0  0
    4.4437   -1.8050   -0.7075 H   0  0  0  0  0  0  0  0  0 41  0  0
    2.6122   -2.1931    0.1349 N   0  0  0  0  0  0  0  0  0 14  0  0
    1.4181   -3.0014    0.0029 C   0  0  0  0  0  0  0  0  0 18  0  0
    0.1836   -2.3171   -0.4599 C   0  0  0  0  0  0  0  0  0 19  0  0
   -0.0333   -1.6476   -1.5666 N   0  0  0  0  0  0  0  0  0 20  0  0
   -1.3527   -1.3309   -1.4902 C   0  0  0  0  0  0  0  0  0 21  0  0
   -2.0555   -0.5366   -2.5424 C   0  0  0  0  0  0  0  0  0 24  0  0
   -2.3814    0.8290   -1.9909 C   0  0  0  0  0  0  0  0  0 25  0  0
   -1.4796    1.8813   -2.1406 C   0  0  0  0  0  0  0  0  0 26  0  0
   -0.5608    1.7243   -2.6782 H   0  0  0  0  0  0  0  0  0 35  0  0
   -1.7672    3.1239   -1.6037 C   0  0  0  0  0  0  0  0  0 27  0  0
   -1.0624    3.9297   -1.7179 H   0  0  0  0  0  0  0  0  0 34  0  0
   -2.9452    3.3282   -0.9047 C   0  0  0  0  0  0  0  0  0 28  0  0
   -3.1727    4.2977   -0.4929 H   0  0  0  0  0  0  0  0  0 33  0  0
   -3.8465    2.2853   -0.7480 C   0  0  0  0  0  0  0  0  0 29  0  0
   -4.7765    2.4444   -0.2206 H   0  0  0  0  0  0  0  0  0 32  0  0
   -3.5537    1.0383   -1.2765 C   0  0  0  0  0  0  0  0  0 30  0  0
   -4.2549    0.2215   -1.1607 H   0  0  0  0  0  0  0  0  0 31  0  0
   -1.4027   -0.4575   -3.4089 H   0  0  0  0  0  0  0  0  0 36  0  0
   -2.9727   -1.0599   -2.8087 H   0  0  0  0  0  0  0  0  0 37  0  0
   -1.9314   -1.7926   -0.4213 N   0  0  0  0  0  0  0  0  0 22  0  0
   -0.9465   -2.4357    0.2647 O   0  0  0  0  0  0  0  0  0 23  0  0
    1.1897   -3.4320    0.9825 H   0  0  0  0  0  0  0  0  0 38  0  0
    1.6430   -3.8093   -0.7041 H   0  0  0  0  0  0  0  0  0 39  0  0
    2.5090   -1.0091    0.9726 C   0  0  0  0  0  0  0  0  0 15  0  0
    3.4994   -0.8009    1.3860 H   0  0  0  0  0  0  0  0  0 16  0  0
    1.8198   -1.2128    1.7913 H   0  0  0  0  0  0  0  0  0 17  0  0
    1.0922    2.8225    1.9629 H   0  0  0  0  0  0  0  0  0 47  0  0
    0.3850    2.2833    0.4189 H   0  0  0  0  0  0  0  0  0 48  0  0
    0.3585    0.3889    3.2555 C   0  0  0  0  0  0  0  0  0  4  0  0
    1.3497    0.6084    3.6291 H   0  0  0  0  0  0  0  0  0  7  0  0
   -0.4646   -0.5131    3.9179 C   0  0  0  0  0  0  0  0  0  5  0  0
   -0.1128   -0.9991    4.8104 H   0  0  0  0  0  0  0  0  0  6  0  0
  1  2  1  0
  1  3  4  0
  3  4  1  0
  3  5  4  0
  5  6  1  0
  5  7  4  0
  7  8  1  0
  8  9  1  0
  9 10  1  0
 10 11  1  6
 10 12  1  0
 12 13  1  0
 12 14  1  0
 12 15  1  0
 15 16  1  0
 15 17  1  0
 15 18  1  0
 18 19  1  0
 18 20  1  0
 18 21  1  0
 21 22  1  0
 22 23  1  0
 23 24  4  0
 24 25  4  0
 25 26  1  0
 26 27  1  0
 27 28  4  0
 28 29  1  0
 28 30  4  0
 30 31  1  0
 30 32  4  0
 32 33  1  0
 32 34  4  0
 34 35  1  0
 34 36  4  0
 36 37  1  0
 26 38  1  0
 26 39  1  0
 25 40  4  0
 40 41  4  0
 22 42  1  0
 22 43  1  0
 21 44  1  0
 44 45  1  0
 44 46  1  0
  8 47  1  0
  8 48  1  0
  7 49  4  0
 49 50  1  0
 49 51  4  0
 51 52  1  0
 51  1  4  0
 44 10  1  0
 41 23  4  0
 36 27  4  0
M  END
>  <sample_id>  (600)
train::c1ccc(COC2CCCN(Cc3nc(Cc4ccccc4)no3)C2)cc1__gen0002

>  <partition>  (600)
BAT_EXTERNAL_CONFIRM

>  <method>  (600)
BA_seed193

>  <candidate>  (600)
primary

$$$$
